* NGSPICE file created from serv_rf_top.ext - technology: gf180mcuD

* Black-box entry subcircuit for gf180mcu_fd_sc_mcu7t5v0__fill_2 abstract view
.subckt gf180mcu_fd_sc_mcu7t5v0__fill_2 VDD VNW VPW VSS
.ends

* Black-box entry subcircuit for gf180mcu_fd_sc_mcu7t5v0__antenna abstract view
.subckt gf180mcu_fd_sc_mcu7t5v0__antenna I VDD VNW VPW VSS
.ends

* Black-box entry subcircuit for gf180mcu_fd_sc_mcu7t5v0__aoi222_4 abstract view
.subckt gf180mcu_fd_sc_mcu7t5v0__aoi222_4 A1 A2 B1 B2 C1 C2 ZN VDD VNW VPW VSS
.ends

* Black-box entry subcircuit for gf180mcu_fd_sc_mcu7t5v0__nor2_4 abstract view
.subckt gf180mcu_fd_sc_mcu7t5v0__nor2_4 A1 A2 ZN VDD VNW VPW VSS
.ends

* Black-box entry subcircuit for gf180mcu_fd_sc_mcu7t5v0__nand2_1 abstract view
.subckt gf180mcu_fd_sc_mcu7t5v0__nand2_1 A1 A2 ZN VDD VNW VPW VSS
.ends

* Black-box entry subcircuit for gf180mcu_fd_sc_mcu7t5v0__fillcap_4 abstract view
.subckt gf180mcu_fd_sc_mcu7t5v0__fillcap_4 VDD VNW VPW VSS
.ends

* Black-box entry subcircuit for gf180mcu_fd_sc_mcu7t5v0__oai21_1 abstract view
.subckt gf180mcu_fd_sc_mcu7t5v0__oai21_1 A1 A2 B ZN VDD VNW VPW VSS
.ends

* Black-box entry subcircuit for gf180mcu_fd_sc_mcu7t5v0__fill_1 abstract view
.subckt gf180mcu_fd_sc_mcu7t5v0__fill_1 VDD VNW VPW VSS
.ends

* Black-box entry subcircuit for gf180mcu_fd_sc_mcu7t5v0__aoi221_2 abstract view
.subckt gf180mcu_fd_sc_mcu7t5v0__aoi221_2 A1 A2 B1 B2 C ZN VDD VNW VPW VSS
.ends

* Black-box entry subcircuit for gf180mcu_fd_sc_mcu7t5v0__aoi222_2 abstract view
.subckt gf180mcu_fd_sc_mcu7t5v0__aoi222_2 A1 A2 B1 B2 C1 C2 ZN VDD VNW VPW VSS
.ends

* Black-box entry subcircuit for gf180mcu_fd_sc_mcu7t5v0__fillcap_16 abstract view
.subckt gf180mcu_fd_sc_mcu7t5v0__fillcap_16 VDD VNW VPW VSS
.ends

* Black-box entry subcircuit for gf180mcu_fd_sc_mcu7t5v0__filltie abstract view
.subckt gf180mcu_fd_sc_mcu7t5v0__filltie VDD VSS
.ends

* Black-box entry subcircuit for gf180mcu_fd_sc_mcu7t5v0__fillcap_32 abstract view
.subckt gf180mcu_fd_sc_mcu7t5v0__fillcap_32 VDD VNW VPW VSS
.ends

* Black-box entry subcircuit for gf180mcu_fd_sc_mcu7t5v0__fillcap_8 abstract view
.subckt gf180mcu_fd_sc_mcu7t5v0__fillcap_8 VDD VNW VPW VSS
.ends

* Black-box entry subcircuit for gf180mcu_fd_sc_mcu7t5v0__aoi21_1 abstract view
.subckt gf180mcu_fd_sc_mcu7t5v0__aoi21_1 A1 A2 B ZN VDD VNW VPW VSS
.ends

* Black-box entry subcircuit for gf180mcu_fd_sc_mcu7t5v0__aoi21_2 abstract view
.subckt gf180mcu_fd_sc_mcu7t5v0__aoi21_2 A1 A2 B ZN VDD VNW VPW VSS
.ends

* Black-box entry subcircuit for gf180mcu_fd_sc_mcu7t5v0__aoi221_4 abstract view
.subckt gf180mcu_fd_sc_mcu7t5v0__aoi221_4 A1 A2 B1 B2 C ZN VDD VNW VPW VSS
.ends

* Black-box entry subcircuit for gf180mcu_fd_sc_mcu7t5v0__dffq_1 abstract view
.subckt gf180mcu_fd_sc_mcu7t5v0__dffq_1 D CLK Q VDD VNW VPW VSS
.ends

* Black-box entry subcircuit for gf180mcu_fd_sc_mcu7t5v0__fillcap_64 abstract view
.subckt gf180mcu_fd_sc_mcu7t5v0__fillcap_64 VDD VNW VPW VSS
.ends

* Black-box entry subcircuit for gf180mcu_fd_sc_mcu7t5v0__buf_4 abstract view
.subckt gf180mcu_fd_sc_mcu7t5v0__buf_4 I Z VDD VNW VPW VSS
.ends

* Black-box entry subcircuit for gf180mcu_fd_sc_mcu7t5v0__buf_8 abstract view
.subckt gf180mcu_fd_sc_mcu7t5v0__buf_8 I Z VDD VNW VPW VSS
.ends

* Black-box entry subcircuit for gf180mcu_fd_sc_mcu7t5v0__clkinv_1 abstract view
.subckt gf180mcu_fd_sc_mcu7t5v0__clkinv_1 I ZN VDD VNW VPW VSS
.ends

* Black-box entry subcircuit for gf180mcu_fd_sc_mcu7t5v0__oai211_1 abstract view
.subckt gf180mcu_fd_sc_mcu7t5v0__oai211_1 A1 A2 B C ZN VDD VNW VPW VSS
.ends

* Black-box entry subcircuit for gf180mcu_fd_sc_mcu7t5v0__clkbuf_8 abstract view
.subckt gf180mcu_fd_sc_mcu7t5v0__clkbuf_8 I Z VDD VNW VPW VSS
.ends

* Black-box entry subcircuit for gf180mcu_fd_sc_mcu7t5v0__endcap abstract view
.subckt gf180mcu_fd_sc_mcu7t5v0__endcap VDD VSS
.ends

* Black-box entry subcircuit for gf180mcu_fd_sc_mcu7t5v0__nor2_2 abstract view
.subckt gf180mcu_fd_sc_mcu7t5v0__nor2_2 A1 A2 ZN VDD VNW VPW VSS
.ends

* Black-box entry subcircuit for gf180mcu_fd_sc_mcu7t5v0__aoi22_1 abstract view
.subckt gf180mcu_fd_sc_mcu7t5v0__aoi22_1 A1 A2 B1 B2 ZN VDD VNW VPW VSS
.ends

* Black-box entry subcircuit for gf180mcu_fd_sc_mcu7t5v0__nand3_4 abstract view
.subckt gf180mcu_fd_sc_mcu7t5v0__nand3_4 A1 A2 A3 ZN VDD VNW VPW VSS
.ends

* Black-box entry subcircuit for gf180mcu_fd_sc_mcu7t5v0__nor3_2 abstract view
.subckt gf180mcu_fd_sc_mcu7t5v0__nor3_2 A1 A2 A3 ZN VDD VNW VPW VSS
.ends

* Black-box entry subcircuit for gf180mcu_fd_sc_mcu7t5v0__clkbuf_12 abstract view
.subckt gf180mcu_fd_sc_mcu7t5v0__clkbuf_12 I Z VDD VNW VPW VSS
.ends

* Black-box entry subcircuit for gf180mcu_fd_sc_mcu7t5v0__aoi221_1 abstract view
.subckt gf180mcu_fd_sc_mcu7t5v0__aoi221_1 A1 A2 B1 B2 C ZN VDD VNW VPW VSS
.ends

* Black-box entry subcircuit for gf180mcu_fd_sc_mcu7t5v0__buf_2 abstract view
.subckt gf180mcu_fd_sc_mcu7t5v0__buf_2 I Z VDD VNW VPW VSS
.ends

* Black-box entry subcircuit for gf180mcu_fd_sc_mcu7t5v0__nand2_2 abstract view
.subckt gf180mcu_fd_sc_mcu7t5v0__nand2_2 A1 A2 ZN VDD VNW VPW VSS
.ends

* Black-box entry subcircuit for gf180mcu_fd_sc_mcu7t5v0__or2_1 abstract view
.subckt gf180mcu_fd_sc_mcu7t5v0__or2_1 A1 A2 Z VDD VNW VPW VSS
.ends

* Black-box entry subcircuit for gf180mcu_fd_sc_mcu7t5v0__clkbuf_1 abstract view
.subckt gf180mcu_fd_sc_mcu7t5v0__clkbuf_1 I Z VDD VNW VPW VSS
.ends

* Black-box entry subcircuit for gf180mcu_fd_sc_mcu7t5v0__dffq_2 abstract view
.subckt gf180mcu_fd_sc_mcu7t5v0__dffq_2 D CLK Q VDD VNW VPW VSS
.ends

* Black-box entry subcircuit for gf180mcu_fd_sc_mcu7t5v0__buf_1 abstract view
.subckt gf180mcu_fd_sc_mcu7t5v0__buf_1 I Z VDD VNW VPW VSS
.ends

* Black-box entry subcircuit for gf180mcu_fd_sc_mcu7t5v0__clkinv_2 abstract view
.subckt gf180mcu_fd_sc_mcu7t5v0__clkinv_2 I ZN VDD VNW VPW VSS
.ends

* Black-box entry subcircuit for gf180mcu_fd_sc_mcu7t5v0__inv_2 abstract view
.subckt gf180mcu_fd_sc_mcu7t5v0__inv_2 I ZN VDD VNW VPW VSS
.ends

* Black-box entry subcircuit for gf180mcu_fd_sc_mcu7t5v0__nand3_1 abstract view
.subckt gf180mcu_fd_sc_mcu7t5v0__nand3_1 A1 A2 A3 ZN VDD VNW VPW VSS
.ends

* Black-box entry subcircuit for gf180mcu_fd_sc_mcu7t5v0__clkbuf_16 abstract view
.subckt gf180mcu_fd_sc_mcu7t5v0__clkbuf_16 I Z VDD VNW VPW VSS
.ends

* Black-box entry subcircuit for gf180mcu_fd_sc_mcu7t5v0__nand2_4 abstract view
.subckt gf180mcu_fd_sc_mcu7t5v0__nand2_4 A1 A2 ZN VDD VNW VPW VSS
.ends

* Black-box entry subcircuit for gf180mcu_fd_sc_mcu7t5v0__buf_3 abstract view
.subckt gf180mcu_fd_sc_mcu7t5v0__buf_3 I Z VDD VNW VPW VSS
.ends

* Black-box entry subcircuit for gf180mcu_fd_sc_mcu7t5v0__oai211_4 abstract view
.subckt gf180mcu_fd_sc_mcu7t5v0__oai211_4 A1 A2 B C ZN VDD VNW VPW VSS
.ends

* Black-box entry subcircuit for gf180mcu_fd_sc_mcu7t5v0__aoi211_4 abstract view
.subckt gf180mcu_fd_sc_mcu7t5v0__aoi211_4 A1 A2 B C ZN VDD VNW VPW VSS
.ends

* Black-box entry subcircuit for gf180mcu_fd_sc_mcu7t5v0__and2_1 abstract view
.subckt gf180mcu_fd_sc_mcu7t5v0__and2_1 A1 A2 Z VDD VNW VPW VSS
.ends

* Black-box entry subcircuit for gf180mcu_fd_sc_mcu7t5v0__mux2_2 abstract view
.subckt gf180mcu_fd_sc_mcu7t5v0__mux2_2 I0 I1 S Z VDD VNW VPW VSS
.ends

* Black-box entry subcircuit for gf180mcu_fd_sc_mcu7t5v0__oai221_1 abstract view
.subckt gf180mcu_fd_sc_mcu7t5v0__oai221_1 A1 A2 B1 B2 C ZN VDD VNW VPW VSS
.ends

* Black-box entry subcircuit for gf180mcu_fd_sc_mcu7t5v0__clkbuf_3 abstract view
.subckt gf180mcu_fd_sc_mcu7t5v0__clkbuf_3 I Z VDD VNW VPW VSS
.ends

* Black-box entry subcircuit for gf180mcu_fd_sc_mcu7t5v0__oai22_1 abstract view
.subckt gf180mcu_fd_sc_mcu7t5v0__oai22_1 A1 A2 B1 B2 ZN VDD VNW VPW VSS
.ends

* Black-box entry subcircuit for gf180mcu_fd_sc_mcu7t5v0__aoi222_1 abstract view
.subckt gf180mcu_fd_sc_mcu7t5v0__aoi222_1 A1 A2 B1 B2 C1 C2 ZN VDD VNW VPW VSS
.ends

* Black-box entry subcircuit for gf180mcu_fd_sc_mcu7t5v0__aoi211_2 abstract view
.subckt gf180mcu_fd_sc_mcu7t5v0__aoi211_2 A1 A2 B C ZN VDD VNW VPW VSS
.ends

* Black-box entry subcircuit for gf180mcu_fd_sc_mcu7t5v0__nor3_4 abstract view
.subckt gf180mcu_fd_sc_mcu7t5v0__nor3_4 A1 A2 A3 ZN VDD VNW VPW VSS
.ends

* Black-box entry subcircuit for gf180mcu_fd_sc_mcu7t5v0__inv_3 abstract view
.subckt gf180mcu_fd_sc_mcu7t5v0__inv_3 I ZN VDD VNW VPW VSS
.ends

* Black-box entry subcircuit for gf180mcu_fd_sc_mcu7t5v0__nor2_1 abstract view
.subckt gf180mcu_fd_sc_mcu7t5v0__nor2_1 A1 A2 ZN VDD VNW VPW VSS
.ends

* Black-box entry subcircuit for gf180mcu_fd_sc_mcu7t5v0__dffq_4 abstract view
.subckt gf180mcu_fd_sc_mcu7t5v0__dffq_4 D CLK Q VDD VNW VPW VSS
.ends

* Black-box entry subcircuit for gf180mcu_fd_sc_mcu7t5v0__oai32_2 abstract view
.subckt gf180mcu_fd_sc_mcu7t5v0__oai32_2 A1 A2 A3 B1 B2 ZN VDD VNW VPW VSS
.ends

* Black-box entry subcircuit for gf180mcu_fd_sc_mcu7t5v0__clkbuf_2 abstract view
.subckt gf180mcu_fd_sc_mcu7t5v0__clkbuf_2 I Z VDD VNW VPW VSS
.ends

* Black-box entry subcircuit for gf180mcu_fd_sc_mcu7t5v0__aoi22_4 abstract view
.subckt gf180mcu_fd_sc_mcu7t5v0__aoi22_4 A1 A2 B1 B2 ZN VDD VNW VPW VSS
.ends

* Black-box entry subcircuit for gf180mcu_fd_sc_mcu7t5v0__nand4_4 abstract view
.subckt gf180mcu_fd_sc_mcu7t5v0__nand4_4 A1 A2 A3 A4 ZN VDD VNW VPW VSS
.ends

* Black-box entry subcircuit for gf180mcu_fd_sc_mcu7t5v0__oai31_1 abstract view
.subckt gf180mcu_fd_sc_mcu7t5v0__oai31_1 A1 A2 A3 B ZN VDD VNW VPW VSS
.ends

* Black-box entry subcircuit for gf180mcu_fd_sc_mcu7t5v0__aoi211_1 abstract view
.subckt gf180mcu_fd_sc_mcu7t5v0__aoi211_1 A1 A2 B C ZN VDD VNW VPW VSS
.ends

* Black-box entry subcircuit for gf180mcu_fd_sc_mcu7t5v0__nand3_2 abstract view
.subckt gf180mcu_fd_sc_mcu7t5v0__nand3_2 A1 A2 A3 ZN VDD VNW VPW VSS
.ends

* Black-box entry subcircuit for gf180mcu_fd_sc_mcu7t5v0__oai211_2 abstract view
.subckt gf180mcu_fd_sc_mcu7t5v0__oai211_2 A1 A2 B C ZN VDD VNW VPW VSS
.ends

* Black-box entry subcircuit for gf180mcu_fd_sc_mcu7t5v0__aoi22_2 abstract view
.subckt gf180mcu_fd_sc_mcu7t5v0__aoi22_2 A1 A2 B1 B2 ZN VDD VNW VPW VSS
.ends

* Black-box entry subcircuit for gf180mcu_fd_sc_mcu7t5v0__oai22_4 abstract view
.subckt gf180mcu_fd_sc_mcu7t5v0__oai22_4 A1 A2 B1 B2 ZN VDD VNW VPW VSS
.ends

* Black-box entry subcircuit for gf180mcu_fd_sc_mcu7t5v0__oai32_1 abstract view
.subckt gf180mcu_fd_sc_mcu7t5v0__oai32_1 A1 A2 A3 B1 B2 ZN VDD VNW VPW VSS
.ends

* Black-box entry subcircuit for gf180mcu_fd_sc_mcu7t5v0__nor3_1 abstract view
.subckt gf180mcu_fd_sc_mcu7t5v0__nor3_1 A1 A2 A3 ZN VDD VNW VPW VSS
.ends

* Black-box entry subcircuit for gf180mcu_fd_sc_mcu7t5v0__or3_1 abstract view
.subckt gf180mcu_fd_sc_mcu7t5v0__or3_1 A1 A2 A3 Z VDD VNW VPW VSS
.ends

* Black-box entry subcircuit for gf180mcu_fd_sc_mcu7t5v0__clkbuf_4 abstract view
.subckt gf180mcu_fd_sc_mcu7t5v0__clkbuf_4 I Z VDD VNW VPW VSS
.ends

* Black-box entry subcircuit for gf180mcu_fd_sc_mcu7t5v0__xor2_1 abstract view
.subckt gf180mcu_fd_sc_mcu7t5v0__xor2_1 A1 A2 Z VDD VNW VPW VSS
.ends

* Black-box entry subcircuit for gf180mcu_fd_sc_mcu7t5v0__and3_1 abstract view
.subckt gf180mcu_fd_sc_mcu7t5v0__and3_1 A1 A2 A3 Z VDD VNW VPW VSS
.ends

* Black-box entry subcircuit for gf180mcu_fd_sc_mcu7t5v0__oai21_4 abstract view
.subckt gf180mcu_fd_sc_mcu7t5v0__oai21_4 A1 A2 B ZN VDD VNW VPW VSS
.ends

* Black-box entry subcircuit for gf180mcu_fd_sc_mcu7t5v0__nor4_2 abstract view
.subckt gf180mcu_fd_sc_mcu7t5v0__nor4_2 A1 A2 A3 A4 ZN VDD VNW VPW VSS
.ends

* Black-box entry subcircuit for gf180mcu_fd_sc_mcu7t5v0__oai22_2 abstract view
.subckt gf180mcu_fd_sc_mcu7t5v0__oai22_2 A1 A2 B1 B2 ZN VDD VNW VPW VSS
.ends

* Black-box entry subcircuit for gf180mcu_fd_sc_mcu7t5v0__and4_1 abstract view
.subckt gf180mcu_fd_sc_mcu7t5v0__and4_1 A1 A2 A3 A4 Z VDD VNW VPW VSS
.ends

* Black-box entry subcircuit for gf180mcu_fd_sc_mcu7t5v0__aoi21_4 abstract view
.subckt gf180mcu_fd_sc_mcu7t5v0__aoi21_4 A1 A2 B ZN VDD VNW VPW VSS
.ends

* Black-box entry subcircuit for gf180mcu_fd_sc_mcu7t5v0__nand4_2 abstract view
.subckt gf180mcu_fd_sc_mcu7t5v0__nand4_2 A1 A2 A3 A4 ZN VDD VNW VPW VSS
.ends

* Black-box entry subcircuit for gf180mcu_fd_sc_mcu7t5v0__oai21_2 abstract view
.subckt gf180mcu_fd_sc_mcu7t5v0__oai21_2 A1 A2 B ZN VDD VNW VPW VSS
.ends

* Black-box entry subcircuit for gf180mcu_fd_sc_mcu7t5v0__nor4_4 abstract view
.subckt gf180mcu_fd_sc_mcu7t5v0__nor4_4 A1 A2 A3 A4 ZN VDD VNW VPW VSS
.ends

* Black-box entry subcircuit for gf180mcu_fd_sc_mcu7t5v0__oai31_2 abstract view
.subckt gf180mcu_fd_sc_mcu7t5v0__oai31_2 A1 A2 A3 B ZN VDD VNW VPW VSS
.ends

* Black-box entry subcircuit for gf180mcu_fd_sc_mcu7t5v0__clkinv_4 abstract view
.subckt gf180mcu_fd_sc_mcu7t5v0__clkinv_4 I ZN VDD VNW VPW VSS
.ends

* Black-box entry subcircuit for gf180mcu_fd_sc_mcu7t5v0__inv_1 abstract view
.subckt gf180mcu_fd_sc_mcu7t5v0__inv_1 I ZN VDD VNW VPW VSS
.ends

* Black-box entry subcircuit for gf180mcu_fd_sc_mcu7t5v0__or4_4 abstract view
.subckt gf180mcu_fd_sc_mcu7t5v0__or4_4 A1 A2 A3 A4 Z VDD VNW VPW VSS
.ends

* Black-box entry subcircuit for gf180mcu_fd_sc_mcu7t5v0__xor2_2 abstract view
.subckt gf180mcu_fd_sc_mcu7t5v0__xor2_2 A1 A2 Z VDD VNW VPW VSS
.ends

* Black-box entry subcircuit for gf180mcu_fd_sc_mcu7t5v0__nand4_1 abstract view
.subckt gf180mcu_fd_sc_mcu7t5v0__nand4_1 A1 A2 A3 A4 ZN VDD VNW VPW VSS
.ends

* Black-box entry subcircuit for gf180mcu_fd_sc_mcu7t5v0__xor3_1 abstract view
.subckt gf180mcu_fd_sc_mcu7t5v0__xor3_1 A1 A2 A3 Z VDD VNW VPW VSS
.ends

* Black-box entry subcircuit for gf180mcu_fd_sc_mcu7t5v0__buf_12 abstract view
.subckt gf180mcu_fd_sc_mcu7t5v0__buf_12 I Z VDD VNW VPW VSS
.ends

* Black-box entry subcircuit for gf180mcu_fd_sc_mcu7t5v0__and3_2 abstract view
.subckt gf180mcu_fd_sc_mcu7t5v0__and3_2 A1 A2 A3 Z VDD VNW VPW VSS
.ends

* Black-box entry subcircuit for gf180mcu_fd_sc_mcu7t5v0__and2_2 abstract view
.subckt gf180mcu_fd_sc_mcu7t5v0__and2_2 A1 A2 Z VDD VNW VPW VSS
.ends

* Black-box entry subcircuit for gf180mcu_fd_sc_mcu7t5v0__dlyb_1 abstract view
.subckt gf180mcu_fd_sc_mcu7t5v0__dlyb_1 I Z VDD VNW VPW VSS
.ends

* Black-box entry subcircuit for gf180mcu_fd_sc_mcu7t5v0__or2_2 abstract view
.subckt gf180mcu_fd_sc_mcu7t5v0__or2_2 A1 A2 Z VDD VNW VPW VSS
.ends

* Black-box entry subcircuit for gf180mcu_fd_sc_mcu7t5v0__clkinv_3 abstract view
.subckt gf180mcu_fd_sc_mcu7t5v0__clkinv_3 I ZN VDD VNW VPW VSS
.ends

* Black-box entry subcircuit for gf180mcu_fd_sc_mcu7t5v0__or3_2 abstract view
.subckt gf180mcu_fd_sc_mcu7t5v0__or3_2 A1 A2 A3 Z VDD VNW VPW VSS
.ends

* Black-box entry subcircuit for gf180mcu_fd_sc_mcu7t5v0__and2_4 abstract view
.subckt gf180mcu_fd_sc_mcu7t5v0__and2_4 A1 A2 Z VDD VNW VPW VSS
.ends

* Black-box entry subcircuit for gf180mcu_fd_sc_mcu7t5v0__xnor2_1 abstract view
.subckt gf180mcu_fd_sc_mcu7t5v0__xnor2_1 A1 A2 ZN VDD VNW VPW VSS
.ends

* Black-box entry subcircuit for gf180mcu_fd_sc_mcu7t5v0__tiel abstract view
.subckt gf180mcu_fd_sc_mcu7t5v0__tiel ZN VDD VNW VPW VSS
.ends

* Black-box entry subcircuit for gf180mcu_fd_sc_mcu7t5v0__inv_4 abstract view
.subckt gf180mcu_fd_sc_mcu7t5v0__inv_4 I ZN VDD VNW VPW VSS
.ends

* Black-box entry subcircuit for gf180mcu_fd_sc_mcu7t5v0__mux4_1 abstract view
.subckt gf180mcu_fd_sc_mcu7t5v0__mux4_1 I0 I1 I2 I3 S0 S1 Z VDD VNW VPW VSS
.ends

.subckt serv_rf_top VDD VSS clk i_dbus_ack i_dbus_rdt[0] i_dbus_rdt[10] i_dbus_rdt[11]
+ i_dbus_rdt[12] i_dbus_rdt[13] i_dbus_rdt[14] i_dbus_rdt[15] i_dbus_rdt[16] i_dbus_rdt[17]
+ i_dbus_rdt[18] i_dbus_rdt[19] i_dbus_rdt[1] i_dbus_rdt[20] i_dbus_rdt[21] i_dbus_rdt[22]
+ i_dbus_rdt[23] i_dbus_rdt[24] i_dbus_rdt[25] i_dbus_rdt[26] i_dbus_rdt[27] i_dbus_rdt[28]
+ i_dbus_rdt[29] i_dbus_rdt[2] i_dbus_rdt[30] i_dbus_rdt[31] i_dbus_rdt[3] i_dbus_rdt[4]
+ i_dbus_rdt[5] i_dbus_rdt[6] i_dbus_rdt[7] i_dbus_rdt[8] i_dbus_rdt[9] i_ext_rd[0]
+ i_ext_rd[10] i_ext_rd[11] i_ext_rd[12] i_ext_rd[13] i_ext_rd[14] i_ext_rd[15] i_ext_rd[16]
+ i_ext_rd[17] i_ext_rd[18] i_ext_rd[19] i_ext_rd[1] i_ext_rd[20] i_ext_rd[21] i_ext_rd[22]
+ i_ext_rd[23] i_ext_rd[24] i_ext_rd[25] i_ext_rd[26] i_ext_rd[27] i_ext_rd[28] i_ext_rd[29]
+ i_ext_rd[2] i_ext_rd[30] i_ext_rd[31] i_ext_rd[3] i_ext_rd[4] i_ext_rd[5] i_ext_rd[6]
+ i_ext_rd[7] i_ext_rd[8] i_ext_rd[9] i_ext_ready i_ibus_ack i_ibus_rdt[0] i_ibus_rdt[10]
+ i_ibus_rdt[11] i_ibus_rdt[12] i_ibus_rdt[13] i_ibus_rdt[14] i_ibus_rdt[15] i_ibus_rdt[16]
+ i_ibus_rdt[17] i_ibus_rdt[18] i_ibus_rdt[19] i_ibus_rdt[1] i_ibus_rdt[20] i_ibus_rdt[21]
+ i_ibus_rdt[22] i_ibus_rdt[23] i_ibus_rdt[24] i_ibus_rdt[25] i_ibus_rdt[26] i_ibus_rdt[27]
+ i_ibus_rdt[28] i_ibus_rdt[29] i_ibus_rdt[2] i_ibus_rdt[30] i_ibus_rdt[31] i_ibus_rdt[3]
+ i_ibus_rdt[4] i_ibus_rdt[5] i_ibus_rdt[6] i_ibus_rdt[7] i_ibus_rdt[8] i_ibus_rdt[9]
+ i_rst i_timer_irq o_dbus_adr[10] o_dbus_adr[11] o_dbus_adr[12] o_dbus_adr[13] o_dbus_adr[14]
+ o_dbus_adr[15] o_dbus_adr[16] o_dbus_adr[17] o_dbus_adr[18] o_dbus_adr[19] o_dbus_adr[1]
+ o_dbus_adr[20] o_dbus_adr[21] o_dbus_adr[22] o_dbus_adr[23] o_dbus_adr[24] o_dbus_adr[25]
+ o_dbus_adr[26] o_dbus_adr[27] o_dbus_adr[28] o_dbus_adr[29] o_dbus_adr[2] o_dbus_adr[30]
+ o_dbus_adr[31] o_dbus_adr[3] o_dbus_adr[4] o_dbus_adr[5] o_dbus_adr[6] o_dbus_adr[7]
+ o_dbus_adr[8] o_dbus_adr[9] o_dbus_cyc o_dbus_dat[0] o_dbus_dat[10] o_dbus_dat[11]
+ o_dbus_dat[12] o_dbus_dat[13] o_dbus_dat[14] o_dbus_dat[15] o_dbus_dat[16] o_dbus_dat[17]
+ o_dbus_dat[18] o_dbus_dat[19] o_dbus_dat[1] o_dbus_dat[20] o_dbus_dat[21] o_dbus_dat[22]
+ o_dbus_dat[23] o_dbus_dat[24] o_dbus_dat[25] o_dbus_dat[26] o_dbus_dat[27] o_dbus_dat[28]
+ o_dbus_dat[29] o_dbus_dat[2] o_dbus_dat[30] o_dbus_dat[31] o_dbus_dat[3] o_dbus_dat[4]
+ o_dbus_dat[5] o_dbus_dat[6] o_dbus_dat[7] o_dbus_dat[8] o_dbus_dat[9] o_dbus_sel[0]
+ o_dbus_sel[1] o_dbus_sel[2] o_dbus_sel[3] o_dbus_we o_ext_funct3[0] o_ext_funct3[1]
+ o_ext_funct3[2] o_ext_rs1[0] o_ext_rs1[10] o_ext_rs1[11] o_ext_rs1[12] o_ext_rs1[13]
+ o_ext_rs1[14] o_ext_rs1[15] o_ext_rs1[16] o_ext_rs1[17] o_ext_rs1[18] o_ext_rs1[19]
+ o_ext_rs1[1] o_ext_rs1[20] o_ext_rs1[21] o_ext_rs1[22] o_ext_rs1[23] o_ext_rs1[24]
+ o_ext_rs1[25] o_ext_rs1[26] o_ext_rs1[27] o_ext_rs1[28] o_ext_rs1[29] o_ext_rs1[2]
+ o_ext_rs1[30] o_ext_rs1[31] o_ext_rs1[3] o_ext_rs1[4] o_ext_rs1[5] o_ext_rs1[6]
+ o_ext_rs1[7] o_ext_rs1[8] o_ext_rs1[9] o_ext_rs2[0] o_ext_rs2[10] o_ext_rs2[11]
+ o_ext_rs2[12] o_ext_rs2[13] o_ext_rs2[14] o_ext_rs2[15] o_ext_rs2[16] o_ext_rs2[17]
+ o_ext_rs2[18] o_ext_rs2[19] o_ext_rs2[1] o_ext_rs2[20] o_ext_rs2[21] o_ext_rs2[22]
+ o_ext_rs2[23] o_ext_rs2[24] o_ext_rs2[25] o_ext_rs2[26] o_ext_rs2[27] o_ext_rs2[28]
+ o_ext_rs2[29] o_ext_rs2[2] o_ext_rs2[30] o_ext_rs2[31] o_ext_rs2[3] o_ext_rs2[4]
+ o_ext_rs2[5] o_ext_rs2[6] o_ext_rs2[7] o_ext_rs2[8] o_ext_rs2[9] o_ibus_adr[0] o_ibus_adr[10]
+ o_ibus_adr[11] o_ibus_adr[12] o_ibus_adr[13] o_ibus_adr[14] o_ibus_adr[15] o_ibus_adr[16]
+ o_ibus_adr[17] o_ibus_adr[18] o_ibus_adr[19] o_ibus_adr[1] o_ibus_adr[20] o_ibus_adr[21]
+ o_ibus_adr[22] o_ibus_adr[23] o_ibus_adr[24] o_ibus_adr[25] o_ibus_adr[26] o_ibus_adr[27]
+ o_ibus_adr[28] o_ibus_adr[29] o_ibus_adr[2] o_ibus_adr[30] o_ibus_adr[31] o_ibus_adr[3]
+ o_ibus_adr[4] o_ibus_adr[5] o_ibus_adr[6] o_ibus_adr[7] o_ibus_adr[8] o_ibus_adr[9]
+ o_ibus_cyc o_mdu_valid o_dbus_adr[0]
XFILLER_0_59_1220 VDD VDD VSS VSS gf180mcu_fd_sc_mcu7t5v0__fill_2
XANTENNA__09523__A2 net45 VDD VDD VSS VSS gf180mcu_fd_sc_mcu7t5v0__antenna
X_05903_ rf_ram.memory\[82\]\[0\] _01652_ _01654_ rf_ram.memory\[83\]\[0\] _01715_
+ rf_ram.memory\[81\]\[0\] _02099_ VDD VDD VSS VSS gf180mcu_fd_sc_mcu7t5v0__aoi222_4
X_06883_ _02750_ _02811_ _02983_ VDD VDD VSS VSS gf180mcu_fd_sc_mcu7t5v0__nor2_4
X_09671_ net1 net27 _04755_ VDD VDD VSS VSS gf180mcu_fd_sc_mcu7t5v0__nand2_1
XFILLER_0_98_1291 VDD VDD VSS VSS gf180mcu_fd_sc_mcu7t5v0__fillcap_4
XANTENNA__06337__A2 _01755_ VDD VDD VSS VSS gf180mcu_fd_sc_mcu7t5v0__antenna
X_08622_ _04058_ _04085_ _04086_ _00729_ VDD VDD VSS VSS gf180mcu_fd_sc_mcu7t5v0__oai21_1
X_05834_ rf_ram.memory\[222\]\[0\] _01501_ _02030_ VDD VDD VSS VSS gf180mcu_fd_sc_mcu7t5v0__nand2_1
XFILLER_0_118_95 VDD VDD VSS VSS gf180mcu_fd_sc_mcu7t5v0__fill_2
XANTENNA__05545__B1 _01688_ VDD VDD VSS VSS gf180mcu_fd_sc_mcu7t5v0__antenna
XFILLER_0_49_303 VDD VDD VSS VSS gf180mcu_fd_sc_mcu7t5v0__fill_1
X_05765_ rf_ram.memory\[154\]\[0\] _01958_ _01959_ rf_ram.memory\[155\]\[0\] _01960_
+ _01961_ VDD VDD VSS VSS gf180mcu_fd_sc_mcu7t5v0__aoi221_2
X_08553_ net249 _03158_ _04042_ VDD VDD VSS VSS gf180mcu_fd_sc_mcu7t5v0__nand2_1
XANTENNA__11633__I net83 VDD VDD VSS VSS gf180mcu_fd_sc_mcu7t5v0__antenna
X_07504_ rf_ram.memory\[363\]\[0\] _03377_ _03378_ VDD VDD VSS VSS gf180mcu_fd_sc_mcu7t5v0__nand2_1
XFILLER_0_159_360 VDD VDD VSS VSS gf180mcu_fd_sc_mcu7t5v0__fill_2
XFILLER_0_134_61 VDD VDD VSS VSS gf180mcu_fd_sc_mcu7t5v0__fillcap_4
X_08484_ rf_ram.memory\[379\]\[0\] _03995_ _03996_ VDD VDD VSS VSS gf180mcu_fd_sc_mcu7t5v0__nand2_1
XANTENNA__06727__I _02819_ VDD VDD VSS VSS gf180mcu_fd_sc_mcu7t5v0__antenna
X_05696_ rf_ram.memory\[390\]\[0\] _01777_ _01773_ rf_ram.memory\[391\]\[0\] _01848_
+ rf_ram.memory\[389\]\[0\] _01892_ VDD VDD VSS VSS gf180mcu_fd_sc_mcu7t5v0__aoi222_2
XFILLER_0_49_369 VDD VDD VSS VSS gf180mcu_fd_sc_mcu7t5v0__fillcap_4
XFILLER_0_9_422 VDD VDD VSS VSS gf180mcu_fd_sc_mcu7t5v0__fillcap_16
XFILLER_0_64_306 VDD VDD VSS VSS gf180mcu_fd_sc_mcu7t5v0__fill_1
XFILLER_0_76_166 VDD VDD VSS VSS gf180mcu_fd_sc_mcu7t5v0__fill_2
XFILLER_0_174_330 VDD VDD VSS VSS gf180mcu_fd_sc_mcu7t5v0__fillcap_4
X_07435_ rf_ram.memory\[332\]\[0\] _03334_ _03335_ VDD VDD VSS VSS gf180mcu_fd_sc_mcu7t5v0__nand2_1
XFILLER_0_64_317 VDD VDD VSS VSS gf180mcu_fd_sc_mcu7t5v0__fill_2
XFILLER_0_76_177 VDD VDD VSS VSS gf180mcu_fd_sc_mcu7t5v0__fill_2
XANTENNA__09039__A1 _04334_ VDD VDD VSS VSS gf180mcu_fd_sc_mcu7t5v0__antenna
XFILLER_0_119_246 VDD VDD VSS VSS gf180mcu_fd_sc_mcu7t5v0__fillcap_16
XFILLER_0_135_706 VDD VDD VSS VSS gf180mcu_fd_sc_mcu7t5v0__fillcap_16
XTAP_TAPCELL_ROW_21_802 VDD VSS gf180mcu_fd_sc_mcu7t5v0__filltie
XFILLER_0_18_734 VDD VDD VSS VSS gf180mcu_fd_sc_mcu7t5v0__fill_1
XFILLER_0_76_199 VDD VDD VSS VSS gf180mcu_fd_sc_mcu7t5v0__fill_2
XFILLER_0_119_268 VDD VDD VSS VSS gf180mcu_fd_sc_mcu7t5v0__fill_2
XFILLER_0_107_419 VDD VDD VSS VSS gf180mcu_fd_sc_mcu7t5v0__fill_1
XFILLER_0_134_205 VDD VDD VSS VSS gf180mcu_fd_sc_mcu7t5v0__fillcap_32
XFILLER_0_135_739 VDD VDD VSS VSS gf180mcu_fd_sc_mcu7t5v0__fillcap_16
X_07366_ _03289_ _03290_ _03291_ _00268_ VDD VDD VSS VSS gf180mcu_fd_sc_mcu7t5v0__oai21_1
XFILLER_0_162_536 VDD VDD VSS VSS gf180mcu_fd_sc_mcu7t5v0__fill_1
XFILLER_0_116_931 VDD VDD VSS VSS gf180mcu_fd_sc_mcu7t5v0__fillcap_8
XFILLER_0_165_1116 VDD VDD VSS VSS gf180mcu_fd_sc_mcu7t5v0__fillcap_4
XFILLER_0_72_361 VDD VDD VSS VSS gf180mcu_fd_sc_mcu7t5v0__fill_2
XFILLER_0_73_895 VDD VDD VSS VSS gf180mcu_fd_sc_mcu7t5v0__fill_2
X_06317_ rf_ram.memory\[182\]\[1\] _01631_ _01505_ _02512_ VDD VDD VSS VSS gf180mcu_fd_sc_mcu7t5v0__aoi21_1
X_09105_ rf_ram.memory\[95\]\[1\] _04384_ _04386_ VDD VDD VSS VSS gf180mcu_fd_sc_mcu7t5v0__nand2_1
XANTENNA__05787__B _01923_ VDD VDD VSS VSS gf180mcu_fd_sc_mcu7t5v0__antenna
XFILLER_0_60_523 VDD VDD VSS VSS gf180mcu_fd_sc_mcu7t5v0__fill_2
X_07297_ _03222_ _03247_ _03248_ _00242_ VDD VDD VSS VSS gf180mcu_fd_sc_mcu7t5v0__oai21_1
XFILLER_0_116_986 VDD VDD VSS VSS gf180mcu_fd_sc_mcu7t5v0__fillcap_8
XFILLER_0_32_247 VDD VDD VSS VSS gf180mcu_fd_sc_mcu7t5v0__fillcap_4
X_09036_ rf_ram.memory\[105\]\[0\] _04343_ _04344_ VDD VDD VSS VSS gf180mcu_fd_sc_mcu7t5v0__nand2_1
XFILLER_0_14_951 VDD VDD VSS VSS gf180mcu_fd_sc_mcu7t5v0__fill_1
XTAP_TAPCELL_ROW_96_2181 VDD VSS gf180mcu_fd_sc_mcu7t5v0__filltie
XFILLER_0_102_102 VDD VDD VSS VSS gf180mcu_fd_sc_mcu7t5v0__fill_2
X_06248_ _02440_ _02442_ _01928_ _02443_ VDD VDD VSS VSS gf180mcu_fd_sc_mcu7t5v0__aoi21_2
XFILLER_0_14_962 VDD VDD VSS VSS gf180mcu_fd_sc_mcu7t5v0__fillcap_16
XFILLER_0_4_171 VDD VDD VSS VSS gf180mcu_fd_sc_mcu7t5v0__fillcap_4
XFILLER_0_130_422 VDD VDD VSS VSS gf180mcu_fd_sc_mcu7t5v0__fillcap_8
XFILLER_0_142_293 VDD VDD VSS VSS gf180mcu_fd_sc_mcu7t5v0__fill_2
X_06179_ _02370_ _02371_ _02372_ _02373_ _01670_ _02374_ VDD VDD VSS VSS gf180mcu_fd_sc_mcu7t5v0__aoi221_4
XANTENNA__09211__A1 _04431_ VDD VDD VSS VSS gf180mcu_fd_sc_mcu7t5v0__antenna
XTAP_TAPCELL_ROW_57_1453 VDD VSS gf180mcu_fd_sc_mcu7t5v0__filltie
XTAP_TAPCELL_ROW_57_1464 VDD VSS gf180mcu_fd_sc_mcu7t5v0__filltie
XFILLER_0_99_1000 VDD VDD VSS VSS gf180mcu_fd_sc_mcu7t5v0__fill_1
XANTENNA__09762__A2 _04766_ VDD VDD VSS VSS gf180mcu_fd_sc_mcu7t5v0__antenna
XFILLER_0_106_1291 VDD VDD VSS VSS gf180mcu_fd_sc_mcu7t5v0__fillcap_4
XFILLER_0_102_1133 VDD VDD VSS VSS gf180mcu_fd_sc_mcu7t5v0__fillcap_4
XFILLER_0_110_190 VDD VDD VSS VSS gf180mcu_fd_sc_mcu7t5v0__fill_2
X_09938_ _04921_ _04926_ _04928_ _01204_ VDD VDD VSS VSS gf180mcu_fd_sc_mcu7t5v0__oai21_1
XFILLER_0_42_1290 VDD VDD VSS VSS gf180mcu_fd_sc_mcu7t5v0__fillcap_4
XTAP_TAPCELL_ROW_70_1697 VDD VSS gf180mcu_fd_sc_mcu7t5v0__filltie
X_09869_ _04884_ _04885_ _04886_ _01177_ VDD VDD VSS VSS gf180mcu_fd_sc_mcu7t5v0__oai21_1
XANTENNA__07525__A1 _02752_ VDD VDD VSS VSS gf180mcu_fd_sc_mcu7t5v0__antenna
XANTENNA__06328__A2 _01537_ VDD VDD VSS VSS gf180mcu_fd_sc_mcu7t5v0__antenna
XTAP_TAPCELL_ROW_29_935 VDD VSS gf180mcu_fd_sc_mcu7t5v0__filltie
XFILLER_0_73_1206 VDD VDD VSS VSS gf180mcu_fd_sc_mcu7t5v0__fillcap_4
XTAP_TAPCELL_ROW_29_946 VDD VSS gf180mcu_fd_sc_mcu7t5v0__filltie
XFILLER_0_56_807 VDD VDD VSS VSS gf180mcu_fd_sc_mcu7t5v0__fill_2
XFILLER_0_68_667 VDD VDD VSS VSS gf180mcu_fd_sc_mcu7t5v0__fillcap_4
XFILLER_0_178_680 VDD VDD VSS VSS gf180mcu_fd_sc_mcu7t5v0__fill_2
XFILLER_0_138_522 VDD VDD VSS VSS gf180mcu_fd_sc_mcu7t5v0__fill_2
XFILLER_0_83_604 VDD VDD VSS VSS gf180mcu_fd_sc_mcu7t5v0__fill_1
XFILLER_0_166_842 VDD VDD VSS VSS gf180mcu_fd_sc_mcu7t5v0__fill_1
XFILLER_0_96_998 VDD VDD VSS VSS gf180mcu_fd_sc_mcu7t5v0__fillcap_4
XFILLER_0_138_544 VDD VDD VSS VSS gf180mcu_fd_sc_mcu7t5v0__fill_1
XFILLER_0_83_626 VDD VDD VSS VSS gf180mcu_fd_sc_mcu7t5v0__fill_1
X_10713_ _00457_ clknet_leaf_131_clk rf_ram.memory\[42\]\[1\] VDD VDD VSS VSS gf180mcu_fd_sc_mcu7t5v0__dffq_1
XFILLER_0_113_1262 VDD VDD VSS VSS gf180mcu_fd_sc_mcu7t5v0__fillcap_32
XFILLER_0_165_352 VDD VDD VSS VSS gf180mcu_fd_sc_mcu7t5v0__fill_2
XFILLER_0_181_823 VDD VDD VSS VSS gf180mcu_fd_sc_mcu7t5v0__fillcap_4
XFILLER_0_48_391 VDD VDD VSS VSS gf180mcu_fd_sc_mcu7t5v0__fill_2
XTAP_TAPCELL_ROW_153_3230 VDD VSS gf180mcu_fd_sc_mcu7t5v0__filltie
XFILLER_0_180_311 VDD VDD VSS VSS gf180mcu_fd_sc_mcu7t5v0__fillcap_4
X_10644_ _00388_ clknet_leaf_107_clk rf_ram.memory\[383\]\[0\] VDD VDD VSS VSS gf180mcu_fd_sc_mcu7t5v0__dffq_1
XTAP_TAPCELL_ROW_153_3241 VDD VSS gf180mcu_fd_sc_mcu7t5v0__filltie
XFILLER_0_107_953 VDD VDD VSS VSS gf180mcu_fd_sc_mcu7t5v0__fillcap_4
X_10575_ _00319_ clknet_leaf_169_clk rf_ram.memory\[324\]\[1\] VDD VDD VSS VSS gf180mcu_fd_sc_mcu7t5v0__dffq_1
XFILLER_0_134_750 VDD VDD VSS VSS gf180mcu_fd_sc_mcu7t5v0__fill_2
XFILLER_0_36_597 VDD VDD VSS VSS gf180mcu_fd_sc_mcu7t5v0__fill_2
XFILLER_0_24_737 VDD VDD VSS VSS gf180mcu_fd_sc_mcu7t5v0__fill_2
XFILLER_0_24_759 VDD VDD VSS VSS gf180mcu_fd_sc_mcu7t5v0__fill_1
XANTENNA__06264__A1 _01674_ VDD VDD VSS VSS gf180mcu_fd_sc_mcu7t5v0__antenna
XTAP_TAPCELL_ROW_77_1829 VDD VSS gf180mcu_fd_sc_mcu7t5v0__filltie
XTAP_TAPCELL_ROW_114_2513 VDD VSS gf180mcu_fd_sc_mcu7t5v0__filltie
XTAP_TAPCELL_ROW_114_2524 VDD VSS gf180mcu_fd_sc_mcu7t5v0__filltie
XFILLER_0_51_567 VDD VDD VSS VSS gf180mcu_fd_sc_mcu7t5v0__fillcap_4
XFILLER_0_121_422 VDD VDD VSS VSS gf180mcu_fd_sc_mcu7t5v0__fillcap_16
XFILLER_0_146_1082 VDD VDD VSS VSS gf180mcu_fd_sc_mcu7t5v0__fill_2
XFILLER_0_32_792 VDD VDD VSS VSS gf180mcu_fd_sc_mcu7t5v0__fillcap_8
XANTENNA__06016__A1 _01351_ VDD VDD VSS VSS gf180mcu_fd_sc_mcu7t5v0__antenna
XFILLER_0_48_37 VDD VDD VSS VSS gf180mcu_fd_sc_mcu7t5v0__fillcap_64
XANTENNA__09753__A2 _04766_ VDD VDD VSS VSS gf180mcu_fd_sc_mcu7t5v0__antenna
XFILLER_0_107_1099 VDD VDD VSS VSS gf180mcu_fd_sc_mcu7t5v0__fill_1
XANTENNA_clkbuf_leaf_311_clk_I clknet_5_5__leaf_clk VDD VDD VSS VSS gf180mcu_fd_sc_mcu7t5v0__antenna
XFILLER_0_120_1222 VDD VDD VSS VSS gf180mcu_fd_sc_mcu7t5v0__fill_2
XANTENNA__07764__A1 _03521_ VDD VDD VSS VSS gf180mcu_fd_sc_mcu7t5v0__antenna
X_11127_ _00863_ clknet_leaf_72_clk rf_ram.memory\[117\]\[1\] VDD VDD VSS VSS gf180mcu_fd_sc_mcu7t5v0__dffq_1
XANTENNA__05716__I _01626_ VDD VDD VSS VSS gf180mcu_fd_sc_mcu7t5v0__antenna
X_11058_ _00795_ clknet_leaf_10_clk rf_ram.memory\[139\]\[1\] VDD VDD VSS VSS gf180mcu_fd_sc_mcu7t5v0__dffq_1
XFILLER_0_155_1318 VDD VDD VSS VSS gf180mcu_fd_sc_mcu7t5v0__fillcap_4
XANTENNA__06319__A2 _01922_ VDD VDD VSS VSS gf180mcu_fd_sc_mcu7t5v0__antenna
X_10009_ rf_ram.memory\[277\]\[1\] _04970_ _04972_ VDD VDD VSS VSS gf180mcu_fd_sc_mcu7t5v0__nand2_1
XANTENNA_clkbuf_leaf_326_clk_I clknet_5_4__leaf_clk VDD VDD VSS VSS gf180mcu_fd_sc_mcu7t5v0__antenna
XFILLER_0_64_69 VDD VDD VSS VSS gf180mcu_fd_sc_mcu7t5v0__fillcap_8
XFILLER_0_188_444 VDD VDD VSS VSS gf180mcu_fd_sc_mcu7t5v0__fillcap_32
XFILLER_0_149_809 VDD VDD VSS VSS gf180mcu_fd_sc_mcu7t5v0__fill_1
XANTENNA__09269__A1 cpu.genblk3.csr.o_new_irq VDD VDD VSS VSS gf180mcu_fd_sc_mcu7t5v0__antenna
XFILLER_0_86_420 VDD VDD VSS VSS gf180mcu_fd_sc_mcu7t5v0__fill_1
X_05550_ _01563_ _01746_ VDD VDD VSS VSS gf180mcu_fd_sc_mcu7t5v0__buf_4
XFILLER_0_47_807 VDD VDD VSS VSS gf180mcu_fd_sc_mcu7t5v0__fill_2
XFILLER_0_129_522 VDD VDD VSS VSS gf180mcu_fd_sc_mcu7t5v0__fill_2
XTAP_TAPCELL_ROW_173_3606 VDD VSS gf180mcu_fd_sc_mcu7t5v0__filltie
XFILLER_0_54_1194 VDD VDD VSS VSS gf180mcu_fd_sc_mcu7t5v0__fill_2
X_05481_ _01633_ _01677_ VDD VDD VSS VSS gf180mcu_fd_sc_mcu7t5v0__buf_8
XFILLER_0_15_1178 VDD VDD VSS VSS gf180mcu_fd_sc_mcu7t5v0__fill_1
XFILLER_0_11_1009 VDD VDD VSS VSS gf180mcu_fd_sc_mcu7t5v0__fillcap_8
XFILLER_0_73_125 VDD VDD VSS VSS gf180mcu_fd_sc_mcu7t5v0__fill_2
XFILLER_0_89_1224 VDD VDD VSS VSS gf180mcu_fd_sc_mcu7t5v0__fillcap_16
XFILLER_0_157_886 VDD VDD VSS VSS gf180mcu_fd_sc_mcu7t5v0__fill_1
XFILLER_0_15_1189 VDD VDD VSS VSS gf180mcu_fd_sc_mcu7t5v0__fill_1