* NGSPICE file created from serv_rf_top.ext - technology: gf180mcuD

.subckt gf180mcu_fd_sc_mcu7t5v0__aoi222_4 A1 ZN VSS VDD C2 C1 B2 B1 A2 VNW VPW
X0 ZN A2 a_1812_472# VNW pfet_06v0 ad=0.317p pd=1.74u as=0.317p ps=1.74u w=1.22u l=0.5u
X1 a_224_472# C2 VDD VNW pfet_06v0 ad=0.317p pd=1.74u as=0.317p ps=1.74u w=1.22u l=0.5u
X2 ZN A1 a_4876_68# VPW nfet_06v0 ad=0.361p pd=2.52u as=0.131p ps=1.14u w=0.82u l=0.6u
X3 a_1812_472# A1 ZN VNW pfet_06v0 ad=0.537p pd=3.32u as=0.317p ps=1.74u w=1.22u l=0.5u
X4 a_2010_68# B1 ZN VPW nfet_06v0 ad=0.152p pd=1.19u as=0.488p ps=2.01u w=0.82u l=0.6u
X5 VSS A2 a_3652_68# VPW nfet_06v0 ad=0.213p pd=1.34u as=0.131p ps=1.14u w=0.82u l=0.6u
X6 a_3652_68# A1 ZN VPW nfet_06v0 ad=0.131p pd=1.14u as=0.213p ps=1.34u w=0.82u l=0.6u
X7 VDD C1 a_224_472# VNW pfet_06v0 ad=0.317p pd=1.74u as=0.317p ps=1.74u w=1.22u l=0.5u
X8 a_244_68# C1 ZN VPW nfet_06v0 ad=0.131p pd=1.14u as=0.361p ps=2.52u w=0.82u l=0.6u
X9 VSS C2 a_244_68# VPW nfet_06v0 ad=0.213p pd=1.34u as=0.131p ps=1.14u w=0.82u l=0.6u
X10 a_1812_472# B2 a_224_472# VNW pfet_06v0 ad=0.317p pd=1.74u as=0.317p ps=1.74u w=1.22u l=0.5u
X11 a_1468_68# C2 VSS VPW nfet_06v0 ad=0.131p pd=1.14u as=0.213p ps=1.34u w=0.82u l=0.6u
X12 a_2428_68# B2 VSS VPW nfet_06v0 ad=0.131p pd=1.14u as=0.213p ps=1.34u w=0.82u l=0.6u
X13 a_224_472# C1 VDD VNW pfet_06v0 ad=0.317p pd=1.74u as=0.317p ps=1.74u w=1.22u l=0.5u
X14 a_4468_68# A1 ZN VPW nfet_06v0 ad=0.131p pd=1.14u as=0.213p ps=1.34u w=0.82u l=0.6u
X15 a_224_472# B2 a_1812_472# VNW pfet_06v0 ad=0.317p pd=1.74u as=0.317p ps=1.74u w=1.22u l=0.5u
X16 a_224_472# B1 a_1812_472# VNW pfet_06v0 ad=0.317p pd=1.74u as=0.537p ps=3.32u w=1.22u l=0.5u
X17 a_4060_68# A2 VSS VPW nfet_06v0 ad=0.131p pd=1.14u as=0.213p ps=1.34u w=0.82u l=0.6u
X18 a_1812_472# B1 a_224_472# VNW pfet_06v0 ad=0.317p pd=1.74u as=0.317p ps=1.74u w=1.22u l=0.5u
X19 a_652_68# C2 VSS VPW nfet_06v0 ad=0.131p pd=1.14u as=0.213p ps=1.34u w=0.82u l=0.6u
X20 ZN C1 a_652_68# VPW nfet_06v0 ad=0.213p pd=1.34u as=0.131p ps=1.14u w=0.82u l=0.6u
X21 VDD C2 a_224_472# VNW pfet_06v0 ad=0.317p pd=1.74u as=0.317p ps=1.74u w=1.22u l=0.5u
X22 a_2836_68# B1 ZN VPW nfet_06v0 ad=0.131p pd=1.14u as=0.213p ps=1.34u w=0.82u l=0.6u
X23 a_224_472# B2 a_1812_472# VNW pfet_06v0 ad=0.317p pd=1.74u as=0.317p ps=1.74u w=1.22u l=0.5u
X24 a_224_472# B1 a_1812_472# VNW pfet_06v0 ad=0.317p pd=1.74u as=0.317p ps=1.74u w=1.22u l=0.5u
X25 VSS C2 a_1060_68# VPW nfet_06v0 ad=0.213p pd=1.34u as=0.131p ps=1.14u w=0.82u l=0.6u
X26 a_224_472# C2 VDD VNW pfet_06v0 ad=0.317p pd=1.74u as=0.317p ps=1.74u w=1.22u l=0.5u
X27 VSS B2 a_2010_68# VPW nfet_06v0 ad=0.213p pd=1.34u as=0.152p ps=1.19u w=0.82u l=0.6u
X28 a_4876_68# A2 VSS VPW nfet_06v0 ad=0.131p pd=1.14u as=0.213p ps=1.34u w=0.82u l=0.6u
X29 a_1812_472# B1 a_224_472# VNW pfet_06v0 ad=0.317p pd=1.74u as=0.317p ps=1.74u w=1.22u l=0.5u
X30 a_1812_472# B2 a_224_472# VNW pfet_06v0 ad=0.317p pd=1.74u as=0.317p ps=1.74u w=1.22u l=0.5u
X31 a_1060_68# C1 ZN VPW nfet_06v0 ad=0.131p pd=1.14u as=0.213p ps=1.34u w=0.82u l=0.6u
X32 ZN A1 a_4060_68# VPW nfet_06v0 ad=0.213p pd=1.34u as=0.131p ps=1.14u w=0.82u l=0.6u
X33 VDD C1 a_224_472# VNW pfet_06v0 ad=0.537p pd=3.32u as=0.317p ps=1.74u w=1.22u l=0.5u
X34 ZN A1 a_1812_472# VNW pfet_06v0 ad=0.317p pd=1.74u as=0.317p ps=1.74u w=1.22u l=0.5u
X35 a_1812_472# A1 ZN VNW pfet_06v0 ad=0.317p pd=1.74u as=0.317p ps=1.74u w=1.22u l=0.5u
X36 ZN C1 a_1468_68# VPW nfet_06v0 ad=0.488p pd=2.01u as=0.131p ps=1.14u w=0.82u l=0.6u
X37 a_1812_472# A2 ZN VNW pfet_06v0 ad=0.317p pd=1.74u as=0.317p ps=1.74u w=1.22u l=0.5u
X38 ZN B1 a_2428_68# VPW nfet_06v0 ad=0.213p pd=1.34u as=0.131p ps=1.14u w=0.82u l=0.6u
X39 ZN A2 a_1812_472# VNW pfet_06v0 ad=0.317p pd=1.74u as=0.317p ps=1.74u w=1.22u l=0.5u
X40 ZN A1 a_1812_472# VNW pfet_06v0 ad=0.317p pd=1.74u as=0.317p ps=1.74u w=1.22u l=0.5u
X41 VSS A2 a_4468_68# VPW nfet_06v0 ad=0.213p pd=1.34u as=0.131p ps=1.14u w=0.82u l=0.6u
X42 a_224_472# C1 VDD VNW pfet_06v0 ad=0.317p pd=1.74u as=0.537p ps=3.32u w=1.22u l=0.5u
X43 a_1812_472# A2 ZN VNW pfet_06v0 ad=0.317p pd=1.74u as=0.317p ps=1.74u w=1.22u l=0.5u
X44 ZN B1 a_3244_68# VPW nfet_06v0 ad=0.213p pd=1.34u as=0.131p ps=1.14u w=0.82u l=0.6u
X45 a_3244_68# B2 VSS VPW nfet_06v0 ad=0.131p pd=1.14u as=0.213p ps=1.34u w=0.82u l=0.6u
X46 VDD C2 a_224_472# VNW pfet_06v0 ad=0.317p pd=1.74u as=0.317p ps=1.74u w=1.22u l=0.5u
X47 VSS B2 a_2836_68# VPW nfet_06v0 ad=0.213p pd=1.34u as=0.131p ps=1.14u w=0.82u l=0.6u
.ends

.subckt gf180mcu_fd_sc_mcu7t5v0__antenna VSS I VDD VNW VPW
D0 VPW I diode_nd2ps_06v0 pj=1.86u area=0.205p
D1 I VNW diode_pd2nw_06v0 pj=1.86u area=0.205p
.ends

.subckt gf180mcu_fd_sc_mcu7t5v0__fillcap_4 VDD VSS VNW VPW
X0 a_124_375# a_36_472# VSS VPW nfet_06v0 ad=0.361p pd=2.52u as=0.361p ps=2.52u w=0.82u l=1u
X1 VDD a_124_375# a_36_472# VNW pfet_06v0 ad=0.537p pd=3.32u as=0.537p ps=3.32u w=1.22u l=1u
.ends

.subckt gf180mcu_fd_sc_mcu7t5v0__nand2_1 VDD VSS ZN A1 A2 VNW VPW
X0 ZN A2 VDD VNW pfet_06v0 ad=0.294p pd=1.65u as=0.497p ps=3.14u w=1.13u l=0.5u
X1 ZN A1 a_245_68# VPW nfet_06v0 ad=0.361p pd=2.52u as=0.131p ps=1.14u w=0.82u l=0.6u
X2 VDD A1 ZN VNW pfet_06v0 ad=0.497p pd=3.14u as=0.294p ps=1.65u w=1.13u l=0.5u
X3 a_245_68# A2 VSS VPW nfet_06v0 ad=0.131p pd=1.14u as=0.361p ps=2.52u w=0.82u l=0.6u
.ends

.subckt gf180mcu_fd_sc_mcu7t5v0__nor2_4 VDD VSS ZN A1 A2 VNW VPW
X0 a_1140_472# A2 VDD VNW pfet_06v0 ad=0.317p pd=1.74u as=0.439p ps=1.94u w=1.22u l=0.5u
X1 ZN A1 VSS VPW nfet_06v0 ad=0.147p pd=1.09u as=0.147p ps=1.09u w=0.565u l=0.6u
X2 ZN A1 a_1140_472# VNW pfet_06v0 ad=0.439p pd=1.94u as=0.317p ps=1.74u w=1.22u l=0.5u
X3 ZN A2 VSS VPW nfet_06v0 ad=0.147p pd=1.09u as=0.249p ps=2.01u w=0.565u l=0.6u
X4 a_1588_472# A1 ZN VNW pfet_06v0 ad=0.317p pd=1.74u as=0.439p ps=1.94u w=1.22u l=0.5u
X5 VDD A2 a_1588_472# VNW pfet_06v0 ad=0.598p pd=3.42u as=0.317p ps=1.74u w=1.22u l=0.5u
X6 ZN A1 VSS VPW nfet_06v0 ad=0.147p pd=1.09u as=0.147p ps=1.09u w=0.565u l=0.6u
X7 a_244_472# A2 VDD VNW pfet_06v0 ad=0.317p pd=1.74u as=0.598p ps=3.42u w=1.22u l=0.5u
X8 ZN A1 a_244_472# VNW pfet_06v0 ad=0.439p pd=1.94u as=0.317p ps=1.74u w=1.22u l=0.5u
X9 a_692_472# A1 ZN VNW pfet_06v0 ad=0.317p pd=1.74u as=0.439p ps=1.94u w=1.22u l=0.5u
X10 VSS A2 ZN VPW nfet_06v0 ad=0.249p pd=2.01u as=0.147p ps=1.09u w=0.565u l=0.6u
X11 VDD A2 a_692_472# VNW pfet_06v0 ad=0.439p pd=1.94u as=0.317p ps=1.74u w=1.22u l=0.5u
X12 VSS A1 ZN VPW nfet_06v0 ad=0.147p pd=1.09u as=0.147p ps=1.09u w=0.565u l=0.6u
X13 VSS A2 ZN VPW nfet_06v0 ad=0.147p pd=1.09u as=0.147p ps=1.09u w=0.565u l=0.6u
X14 VSS A1 ZN VPW nfet_06v0 ad=0.147p pd=1.09u as=0.147p ps=1.09u w=0.565u l=0.6u
X15 ZN A2 VSS VPW nfet_06v0 ad=0.147p pd=1.09u as=0.147p ps=1.09u w=0.565u l=0.6u
.ends

.subckt gf180mcu_fd_sc_mcu7t5v0__oai21_1 VDD B A2 ZN A1 VSS VNW VPW
X0 VSS B a_36_68# VPW nfet_06v0 ad=0.361p pd=2.52u as=0.213p ps=1.34u w=0.82u l=0.6u
X1 ZN A2 a_36_68# VPW nfet_06v0 ad=0.213p pd=1.34u as=0.361p ps=2.52u w=0.82u l=0.6u
X2 VDD B ZN VNW pfet_06v0 ad=0.497p pd=3.14u as=0.425p ps=1.94u w=1.13u l=0.5u
X3 a_244_472# A2 VDD VNW pfet_06v0 ad=0.317p pd=1.74u as=0.598p ps=3.42u w=1.22u l=0.5u
X4 ZN A1 a_244_472# VNW pfet_06v0 ad=0.425p pd=1.94u as=0.317p ps=1.74u w=1.22u l=0.5u
X5 a_36_68# A1 ZN VPW nfet_06v0 ad=0.213p pd=1.34u as=0.213p ps=1.34u w=0.82u l=0.6u
.ends

.subckt gf180mcu_fd_sc_mcu7t5v0__aoi221_2 B1 B2 VDD VSS ZN A1 A2 C VNW VPW
X0 a_56_492# A2 ZN VNW pfet_06v0 ad=0.291p pd=1.64u as=0.291p ps=1.64u w=1.12u l=0.5u
X1 a_512_68# B2 VSS VPW nfet_06v0 ad=0.164p pd=1.17u as=0.218p ps=1.45u w=0.715u l=0.6u
X2 ZN C VSS VPW nfet_06v0 ad=0.234p pd=1.43u as=0.652p ps=2.69u w=0.575u l=0.6u
X3 a_244_492# B2 VDD VNW pfet_06v0 ad=0.706p pd=2.38u as=0.566p ps=2.24u w=1.12u l=0.5u
X4 a_948_68# B1 ZN VPW nfet_06v0 ad=0.107p pd=1.01u as=0.186p ps=1.24u w=0.715u l=0.6u
X5 VSS B2 a_948_68# VPW nfet_06v0 ad=0.652p pd=2.69u as=0.107p ps=1.01u w=0.715u l=0.6u
X6 a_56_492# C a_244_492# VNW pfet_06v0 ad=0.311p pd=1.67u as=0.706p ps=2.38u w=1.12u l=0.5u
X7 VSS C ZN VPW nfet_06v0 ad=0.218p pd=1.45u as=0.178p ps=1.69u w=0.405u l=0.6u
X8 VDD B1 a_244_492# VNW pfet_06v0 ad=0.566p pd=2.24u as=0.302p ps=1.66u w=1.12u l=0.5u
X9 a_2267_68# A2 VSS VPW nfet_06v0 ad=85.8f pd=0.955u as=0.186p ps=1.24u w=0.715u l=0.6u
X10 a_1875_68# A1 ZN VPW nfet_06v0 ad=85.8f pd=0.955u as=0.234p ps=1.43u w=0.715u l=0.6u
X11 VSS A2 a_1875_68# VPW nfet_06v0 ad=0.186p pd=1.24u as=85.8f ps=0.955u w=0.715u l=0.6u
X12 ZN A1 a_2267_68# VPW nfet_06v0 ad=0.315p pd=2.31u as=85.8f ps=0.955u w=0.715u l=0.6u
X13 a_244_492# B1 VDD VNW pfet_06v0 ad=0.302p pd=1.66u as=0.566p ps=2.24u w=1.12u l=0.5u
X14 ZN B1 a_512_68# VPW nfet_06v0 ad=0.186p pd=1.24u as=0.164p ps=1.17u w=0.715u l=0.6u
X15 a_244_492# C a_56_492# VNW pfet_06v0 ad=0.291p pd=1.64u as=0.493p ps=3.12u w=1.12u l=0.5u
X16 ZN A2 a_56_492# VNW pfet_06v0 ad=0.291p pd=1.64u as=0.291p ps=1.64u w=1.12u l=0.5u
X17 VDD B2 a_244_492# VNW pfet_06v0 ad=0.566p pd=2.24u as=0.291p ps=1.64u w=1.12u l=0.5u
X18 ZN A1 a_56_492# VNW pfet_06v0 ad=0.291p pd=1.64u as=0.311p ps=1.67u w=1.12u l=0.5u
X19 a_56_492# A1 ZN VNW pfet_06v0 ad=0.493p pd=3.12u as=0.291p ps=1.64u w=1.12u l=0.5u
.ends

.subckt gf180mcu_fd_sc_mcu7t5v0__aoi222_2 B2 B1 A2 A1 ZN VSS VDD C2 C1 VNW VPW
X0 VSS C2 a_251_68# VPW nfet_06v0 ad=0.316p pd=1.59u as=96f ps=1.04u w=0.8u l=0.6u
X1 ZN C1 a_697_68# VPW nfet_06v0 ad=0.384p pd=1.76u as=0.124p ps=1.11u w=0.8u l=0.6u
X2 a_231_472# C1 VDD VNW pfet_06v0 ad=0.317p pd=1.74u as=0.537p ps=3.32u w=1.22u l=0.5u
X3 a_1003_472# B2 a_231_472# VNW pfet_06v0 ad=0.317p pd=1.74u as=0.317p ps=1.74u w=1.22u l=0.5u
X4 ZN A2 a_1003_472# VNW pfet_06v0 ad=0.317p pd=1.74u as=0.317p ps=1.74u w=1.22u l=0.5u
X5 ZN A1 a_1003_472# VNW pfet_06v0 ad=0.317p pd=1.74u as=0.326p ps=1.75u w=1.22u l=0.5u
X6 VSS B2 a_1191_68# VPW nfet_06v0 ad=0.208p pd=1.32u as=0.168p ps=1.22u w=0.8u l=0.6u
X7 a_231_472# B2 a_1003_472# VNW pfet_06v0 ad=0.317p pd=1.74u as=0.317p ps=1.74u w=1.22u l=0.5u
X8 a_1003_472# A1 ZN VNW pfet_06v0 ad=0.537p pd=3.32u as=0.317p ps=1.74u w=1.22u l=0.5u
X9 VDD C2 a_231_472# VNW pfet_06v0 ad=0.317p pd=1.74u as=0.317p ps=1.74u w=1.22u l=0.5u
X10 a_231_472# C2 VDD VNW pfet_06v0 ad=0.317p pd=1.74u as=0.317p ps=1.74u w=1.22u l=0.5u
X11 ZN B1 a_1619_68# VPW nfet_06v0 ad=0.214p pd=1.34u as=0.128p ps=1.12u w=0.8u l=0.6u
X12 VDD C1 a_231_472# VNW pfet_06v0 ad=0.537p pd=3.32u as=0.317p ps=1.74u w=1.22u l=0.5u
X13 a_2438_68# A2 VSS VPW nfet_06v0 ad=0.128p pd=1.12u as=0.208p ps=1.32u w=0.8u l=0.6u
X14 a_2030_68# A1 ZN VPW nfet_06v0 ad=0.128p pd=1.12u as=0.214p ps=1.34u w=0.8u l=0.6u
X15 a_251_68# C1 ZN VPW nfet_06v0 ad=96f pd=1.04u as=0.352p ps=2.48u w=0.8u l=0.6u
X16 a_1003_472# B1 a_231_472# VNW pfet_06v0 ad=0.326p pd=1.75u as=0.317p ps=1.74u w=1.22u l=0.5u
X17 VSS A2 a_2030_68# VPW nfet_06v0 ad=0.208p pd=1.32u as=0.128p ps=1.12u w=0.8u l=0.6u
X18 a_1191_68# B1 ZN VPW nfet_06v0 ad=0.168p pd=1.22u as=0.384p ps=1.76u w=0.8u l=0.6u
X19 a_1619_68# B2 VSS VPW nfet_06v0 ad=0.128p pd=1.12u as=0.208p ps=1.32u w=0.8u l=0.6u
X20 ZN A1 a_2438_68# VPW nfet_06v0 ad=0.352p pd=2.48u as=0.128p ps=1.12u w=0.8u l=0.6u
X21 a_231_472# B1 a_1003_472# VNW pfet_06v0 ad=0.317p pd=1.74u as=0.537p ps=3.32u w=1.22u l=0.5u
X22 a_697_68# C2 VSS VPW nfet_06v0 ad=0.124p pd=1.11u as=0.316p ps=1.59u w=0.8u l=0.6u
X23 a_1003_472# A2 ZN VNW pfet_06v0 ad=0.317p pd=1.74u as=0.317p ps=1.74u w=1.22u l=0.5u
.ends

.subckt gf180mcu_fd_sc_mcu7t5v0__fillcap_16 VDD VSS VNW VPW
X0 VDD a_572_375# a_484_472# VNW pfet_06v0 ad=0.537p pd=3.32u as=0.537p ps=3.32u w=1.22u l=1u
X1 a_572_375# a_484_472# VSS VPW nfet_06v0 ad=0.361p pd=2.52u as=0.361p ps=2.52u w=0.82u l=1u
X2 a_124_375# a_36_472# VSS VPW nfet_06v0 ad=0.361p pd=2.52u as=0.361p ps=2.52u w=0.82u l=1u
X3 a_1468_375# a_1380_472# VSS VPW nfet_06v0 ad=0.361p pd=2.52u as=0.361p ps=2.52u w=0.82u l=1u
X4 VDD a_1020_375# a_932_472# VNW pfet_06v0 ad=0.537p pd=3.32u as=0.537p ps=3.32u w=1.22u l=1u
X5 VDD a_1468_375# a_1380_472# VNW pfet_06v0 ad=0.537p pd=3.32u as=0.537p ps=3.32u w=1.22u l=1u
X6 VDD a_124_375# a_36_472# VNW pfet_06v0 ad=0.537p pd=3.32u as=0.537p ps=3.32u w=1.22u l=1u
X7 a_1020_375# a_932_472# VSS VPW nfet_06v0 ad=0.361p pd=2.52u as=0.361p ps=2.52u w=0.82u l=1u
.ends

.subckt gf180mcu_fd_sc_mcu7t5v0__fillcap_32 VDD VSS VNW VPW
X0 VDD a_572_375# a_484_472# VNW pfet_06v0 ad=0.537p pd=3.32u as=0.537p ps=3.32u w=1.22u l=1u
X1 VDD a_2364_375# a_2276_472# VNW pfet_06v0 ad=0.537p pd=3.32u as=0.537p ps=3.32u w=1.22u l=1u
X2 a_572_375# a_484_472# VSS VPW nfet_06v0 ad=0.361p pd=2.52u as=0.361p ps=2.52u w=0.82u l=1u
X3 VDD a_1916_375# a_1828_472# VNW pfet_06v0 ad=0.537p pd=3.32u as=0.537p ps=3.32u w=1.22u l=1u
X4 a_124_375# a_36_472# VSS VPW nfet_06v0 ad=0.361p pd=2.52u as=0.361p ps=2.52u w=0.82u l=1u
X5 a_1916_375# a_1828_472# VSS VPW nfet_06v0 ad=0.361p pd=2.52u as=0.361p ps=2.52u w=0.82u l=1u
X6 a_1468_375# a_1380_472# VSS VPW nfet_06v0 ad=0.361p pd=2.52u as=0.361p ps=2.52u w=0.82u l=1u
X7 a_2812_375# a_2724_472# VSS VPW nfet_06v0 ad=0.361p pd=2.52u as=0.361p ps=2.52u w=0.82u l=1u
X8 VDD a_3260_375# a_3172_472# VNW pfet_06v0 ad=0.537p pd=3.32u as=0.537p ps=3.32u w=1.22u l=1u
X9 a_2364_375# a_2276_472# VSS VPW nfet_06v0 ad=0.361p pd=2.52u as=0.361p ps=2.52u w=0.82u l=1u
X10 VDD a_2812_375# a_2724_472# VNW pfet_06v0 ad=0.537p pd=3.32u as=0.537p ps=3.32u w=1.22u l=1u
X11 a_3260_375# a_3172_472# VSS VPW nfet_06v0 ad=0.361p pd=2.52u as=0.361p ps=2.52u w=0.82u l=1u
X12 VDD a_1020_375# a_932_472# VNW pfet_06v0 ad=0.537p pd=3.32u as=0.537p ps=3.32u w=1.22u l=1u
X13 VDD a_1468_375# a_1380_472# VNW pfet_06v0 ad=0.537p pd=3.32u as=0.537p ps=3.32u w=1.22u l=1u
X14 VDD a_124_375# a_36_472# VNW pfet_06v0 ad=0.537p pd=3.32u as=0.537p ps=3.32u w=1.22u l=1u
X15 a_1020_375# a_932_472# VSS VPW nfet_06v0 ad=0.361p pd=2.52u as=0.361p ps=2.52u w=0.82u l=1u
.ends

.subckt gf180mcu_fd_sc_mcu7t5v0__fillcap_8 VDD VSS VNW VPW
X0 VDD a_572_375# a_484_472# VNW pfet_06v0 ad=0.537p pd=3.32u as=0.537p ps=3.32u w=1.22u l=1u
X1 a_572_375# a_484_472# VSS VPW nfet_06v0 ad=0.361p pd=2.52u as=0.361p ps=2.52u w=0.82u l=1u
X2 a_124_375# a_36_472# VSS VPW nfet_06v0 ad=0.361p pd=2.52u as=0.361p ps=2.52u w=0.82u l=1u
X3 VDD a_124_375# a_36_472# VNW pfet_06v0 ad=0.537p pd=3.32u as=0.537p ps=3.32u w=1.22u l=1u
.ends

.subckt gf180mcu_fd_sc_mcu7t5v0__aoi21_1 B VDD VSS ZN A1 A2 VNW VPW
X0 a_244_68# A2 VSS VPW nfet_06v0 ad=0.131p pd=1.14u as=0.361p ps=2.52u w=0.82u l=0.6u
X1 ZN A1 a_244_68# VPW nfet_06v0 ad=0.257p pd=1.56u as=0.131p ps=1.14u w=0.82u l=0.6u
X2 VDD B a_36_472# VNW pfet_06v0 ad=0.535p pd=3.31u as=0.45p ps=1.96u w=1.22u l=0.5u
X3 ZN A2 a_36_472# VNW pfet_06v0 ad=0.316p pd=1.74u as=0.535p ps=3.31u w=1.22u l=0.5u
X4 a_36_472# A1 ZN VNW pfet_06v0 ad=0.45p pd=1.96u as=0.316p ps=1.74u w=1.22u l=0.5u
X5 VSS B ZN VPW nfet_06v0 ad=0.224p pd=1.9u as=0.257p ps=1.56u w=0.51u l=0.6u
.ends

.subckt gf180mcu_fd_sc_mcu7t5v0__aoi21_2 B VDD VSS ZN A1 A2 VNW VPW
X0 VSS A2 a_1133_69# VPW nfet_06v0 ad=0.341p pd=2.43u as=93f ps=1.01u w=0.775u l=0.6u
X1 VDD B a_49_472# VNW pfet_06v0 ad=0.377p pd=1.83u as=0.535p ps=3.31u w=1.22u l=0.5u
X2 ZN A1 a_49_472# VNW pfet_06v0 ad=0.316p pd=1.74u as=0.328p ps=1.75u w=1.22u l=0.5u
X3 a_741_69# A2 VSS VPW nfet_06v0 ad=93f pd=1.01u as=0.24p ps=1.48u w=0.775u l=0.6u
X4 a_49_472# A1 ZN VNW pfet_06v0 ad=0.328p pd=1.75u as=0.377p ps=1.83u w=1.22u l=0.5u
X5 ZN B VSS VPW nfet_06v0 ad=0.147p pd=1.09u as=0.249p ps=2.01u w=0.565u l=0.6u
X6 a_49_472# A2 ZN VNW pfet_06v0 ad=0.535p pd=3.31u as=0.316p ps=1.74u w=1.22u l=0.5u
X7 a_49_472# B VDD VNW pfet_06v0 ad=0.316p pd=1.74u as=0.377p ps=1.83u w=1.22u l=0.5u
X8 ZN A2 a_49_472# VNW pfet_06v0 ad=0.377p pd=1.83u as=0.316p ps=1.74u w=1.22u l=0.5u
X9 VSS B ZN VPW nfet_06v0 ad=0.24p pd=1.48u as=0.147p ps=1.09u w=0.565u l=0.6u
X10 ZN A1 a_741_69# VPW nfet_06v0 ad=0.201p pd=1.29u as=93f ps=1.01u w=0.775u l=0.6u
X11 a_1133_69# A1 ZN VPW nfet_06v0 ad=93f pd=1.01u as=0.201p ps=1.29u w=0.775u l=0.6u
.ends

.subckt gf180mcu_fd_sc_mcu7t5v0__aoi221_4 A2 B1 B2 C VDD VSS ZN A1 VNW VPW
X0 VSS B2 a_1070_69# VPW nfet_06v0 ad=0.2p pd=1.29u as=0.123p ps=1.09u w=0.77u l=0.6u
X1 VDD B2 a_234_508# VNW pfet_06v0 ad=0.269p pd=1.55u as=0.269p ps=1.55u w=1.03u l=0.5u
X2 VSS A2 a_3728_69# VPW nfet_06v0 ad=0.2p pd=1.29u as=0.123p ps=1.09u w=0.77u l=0.6u
X3 a_234_508# C a_1822_472# VNW pfet_06v0 ad=0.346p pd=1.78u as=0.316p ps=1.74u w=1.22u l=0.5u
X4 a_1822_472# A1 ZN VNW pfet_06v0 ad=0.316p pd=1.74u as=0.316p ps=1.74u w=1.22u l=0.5u
X5 a_234_508# C a_1822_472# VNW pfet_06v0 ad=0.316p pd=1.74u as=0.535p ps=3.31u w=1.22u l=0.5u
X6 ZN A2 a_1822_472# VNW pfet_06v0 ad=0.316p pd=1.74u as=0.316p ps=1.74u w=1.22u l=0.5u
X7 a_1070_69# B1 ZN VPW nfet_06v0 ad=0.123p pd=1.09u as=0.2p ps=1.29u w=0.77u l=0.6u
X8 a_234_508# B2 VDD VNW pfet_06v0 ad=0.269p pd=1.55u as=0.269p ps=1.55u w=1.03u l=0.5u
X9 ZN A1 a_1822_472# VNW pfet_06v0 ad=0.316p pd=1.74u as=0.316p ps=1.74u w=1.22u l=0.5u
X10 a_1822_472# A1 ZN VNW pfet_06v0 ad=0.535p pd=3.31u as=0.316p ps=1.74u w=1.22u l=0.5u
X11 VDD B1 a_234_508# VNW pfet_06v0 ad=0.455p pd=2.95u as=0.269p ps=1.55u w=1.03u l=0.5u
X12 a_1822_472# A2 ZN VNW pfet_06v0 ad=0.316p pd=1.74u as=0.316p ps=1.74u w=1.22u l=0.5u
X13 a_2912_69# A1 ZN VPW nfet_06v0 ad=0.123p pd=1.09u as=0.226p ps=1.47u w=0.77u l=0.6u
X14 VSS A2 a_2912_69# VPW nfet_06v0 ad=0.2p pd=1.29u as=0.123p ps=1.09u w=0.77u l=0.6u
X15 a_234_508# B1 VDD VNW pfet_06v0 ad=0.269p pd=1.55u as=0.455p ps=2.95u w=1.03u l=0.5u
X16 a_3728_69# A1 ZN VPW nfet_06v0 ad=0.123p pd=1.09u as=0.2p ps=1.29u w=0.77u l=0.6u
X17 ZN A1 a_4136_69# VPW nfet_06v0 ad=0.339p pd=2.42u as=0.123p ps=1.09u w=0.77u l=0.6u
X18 a_244_69# B1 ZN VPW nfet_06v0 ad=0.142p pd=1.14u as=0.339p ps=2.42u w=0.77u l=0.6u
X19 VSS C ZN VPW nfet_06v0 ad=0.125p pd=1u as=0.125p ps=1u w=0.48u l=0.6u
X20 VDD B2 a_234_508# VNW pfet_06v0 ad=0.269p pd=1.55u as=0.269p ps=1.55u w=1.03u l=0.5u
X21 ZN B1 a_1478_69# VPW nfet_06v0 ad=0.299p pd=1.66u as=0.162p ps=1.19u w=0.77u l=0.6u
X22 a_234_508# B2 VDD VNW pfet_06v0 ad=0.269p pd=1.55u as=0.269p ps=1.55u w=1.03u l=0.5u
X23 VSS B2 a_244_69# VPW nfet_06v0 ad=0.2p pd=1.29u as=0.142p ps=1.14u w=0.77u l=0.6u
X24 a_1478_69# B2 VSS VPW nfet_06v0 ad=0.162p pd=1.19u as=0.2p ps=1.29u w=0.77u l=0.6u
X25 VDD B1 a_234_508# VNW pfet_06v0 ad=0.269p pd=1.55u as=0.269p ps=1.55u w=1.03u l=0.5u
X26 ZN A1 a_1822_472# VNW pfet_06v0 ad=0.316p pd=1.74u as=0.486p ps=2.02u w=1.22u l=0.5u
X27 ZN C VSS VPW nfet_06v0 ad=0.226p pd=1.47u as=0.125p ps=1u w=0.48u l=0.6u
X28 a_3320_69# A2 VSS VPW nfet_06v0 ad=0.123p pd=1.09u as=0.2p ps=1.29u w=0.77u l=0.6u
X29 ZN A1 a_3320_69# VPW nfet_06v0 ad=0.2p pd=1.29u as=0.123p ps=1.09u w=0.77u l=0.6u
X30 a_234_508# B1 VDD VNW pfet_06v0 ad=0.269p pd=1.55u as=0.269p ps=1.55u w=1.03u l=0.5u
X31 ZN C VSS VPW nfet_06v0 ad=0.125p pd=1u as=0.125p ps=1u w=0.48u l=0.6u
X32 a_1822_472# C a_234_508# VNW pfet_06v0 ad=0.486p pd=2.02u as=0.346p ps=1.78u w=1.22u l=0.5u
X33 a_1822_472# A2 ZN VNW pfet_06v0 ad=0.316p pd=1.74u as=0.316p ps=1.74u w=1.22u l=0.5u
X34 ZN B1 a_662_69# VPW nfet_06v0 ad=0.2p pd=1.29u as=0.123p ps=1.09u w=0.77u l=0.6u
X35 a_662_69# B2 VSS VPW nfet_06v0 ad=0.123p pd=1.09u as=0.2p ps=1.29u w=0.77u l=0.6u
X36 VSS C ZN VPW nfet_06v0 ad=0.125p pd=1u as=0.299p ps=1.66u w=0.48u l=0.6u
X37 a_1822_472# C a_234_508# VNW pfet_06v0 ad=0.316p pd=1.74u as=0.316p ps=1.74u w=1.22u l=0.5u
X38 ZN A2 a_1822_472# VNW pfet_06v0 ad=0.316p pd=1.74u as=0.316p ps=1.74u w=1.22u l=0.5u
X39 a_4136_69# A2 VSS VPW nfet_06v0 ad=0.123p pd=1.09u as=0.2p ps=1.29u w=0.77u l=0.6u
.ends

.subckt gf180mcu_fd_sc_mcu7t5v0__dffq_1 VDD Q CLK VSS D VNW VPW
X0 VSS CLK a_36_151# VPW nfet_06v0 ad=0.105p pd=0.925u as=0.178p ps=1.69u w=0.405u l=0.6u
X1 Q a_2304_115# VSS VPW nfet_06v0 ad=0.361p pd=2.52u as=0.361p ps=2.52u w=0.82u l=0.6u
X2 a_2304_115# a_2011_527# VSS VPW nfet_06v0 ad=0.176p pd=1.68u as=0.142p ps=1.14u w=0.4u l=0.6u
X3 a_1004_159# D a_836_159# VPW nfet_06v0 ad=0.207p pd=1.51u as=43.2f ps=0.6u w=0.36u l=0.6u
X4 a_1004_159# D a_880_527# VNW pfet_06v0 ad=0.187p pd=1.4u as=54f ps=0.66u w=0.36u l=0.5u
X5 a_2011_527# a_36_151# a_1376_115# VNW pfet_06v0 ad=0.166p pd=1.28u as=0.179p ps=1.36u w=0.36u l=0.5u
X6 a_2296_527# a_448_472# a_2011_527# VNW pfet_06v0 ad=50.4f pd=0.64u as=0.166p ps=1.28u w=0.36u l=0.5u
X7 a_1376_115# a_1004_159# VDD VNW pfet_06v0 ad=0.179p pd=1.36u as=0.104p ps=0.94u w=0.36u l=0.5u
X8 VDD CLK a_36_151# VNW pfet_06v0 ad=0.225p pd=1.38u as=0.381p ps=2.61u w=0.865u l=0.5u
X9 VSS a_1376_115# a_1328_159# VPW nfet_06v0 ad=0.264p pd=1.82u as=43.2f ps=0.6u w=0.36u l=0.6u
X10 a_2011_527# a_448_472# a_1376_115# VPW nfet_06v0 ad=93.6f pd=0.88u as=93.6f ps=0.88u w=0.36u l=0.6u
X11 a_448_472# a_36_151# VDD VNW pfet_06v0 ad=0.381p pd=2.61u as=0.225p ps=1.38u w=0.865u l=0.5u
X12 Q a_2304_115# VDD VNW pfet_06v0 ad=0.537p pd=3.32u as=0.537p ps=3.32u w=1.22u l=0.5u
X13 a_1376_115# a_1004_159# VSS VPW nfet_06v0 ad=93.6f pd=0.88u as=0.264p ps=1.82u w=0.36u l=0.6u
X14 VSS a_2304_115# a_2256_159# VPW nfet_06v0 ad=0.142p pd=1.14u as=43.2f ps=0.6u w=0.36u l=0.6u
X15 a_836_159# a_36_151# VSS VPW nfet_06v0 ad=43.2f pd=0.6u as=0.158p ps=1.6u w=0.36u l=0.6u
X16 a_448_472# a_36_151# VSS VPW nfet_06v0 ad=0.178p pd=1.69u as=0.105p ps=0.925u w=0.405u l=0.6u
X17 a_2256_159# a_36_151# a_2011_527# VPW nfet_06v0 ad=43.2f pd=0.6u as=93.6f ps=0.88u w=0.36u l=0.6u
X18 a_880_527# a_448_472# VDD VNW pfet_06v0 ad=54f pd=0.66u as=0.455p ps=3.25u w=0.36u l=0.5u
X19 a_1348_527# a_36_151# a_1004_159# VNW pfet_06v0 ad=43.2f pd=0.6u as=0.187p ps=1.4u w=0.36u l=0.5u
X20 a_1328_159# a_448_472# a_1004_159# VPW nfet_06v0 ad=43.2f pd=0.6u as=0.207p ps=1.51u w=0.36u l=0.6u
X21 VDD a_1376_115# a_1348_527# VNW pfet_06v0 ad=0.104p pd=0.94u as=43.2f ps=0.6u w=0.36u l=0.5u
X22 VDD a_2304_115# a_2296_527# VNW pfet_06v0 ad=0.23p pd=1.54u as=50.4f ps=0.64u w=0.36u l=0.5u
X23 a_2304_115# a_2011_527# VDD VNW pfet_06v0 ad=0.352p pd=2.48u as=0.23p ps=1.54u w=0.8u l=0.5u
.ends

.subckt gf180mcu_fd_sc_mcu7t5v0__fillcap_64 VDD VSS VNW VPW
X0 a_4604_375# a_4516_472# VSS VPW nfet_06v0 ad=0.361p pd=2.52u as=0.361p ps=2.52u w=0.82u l=1u
X1 VDD a_572_375# a_484_472# VNW pfet_06v0 ad=0.537p pd=3.32u as=0.537p ps=3.32u w=1.22u l=1u
X2 VDD a_2364_375# a_2276_472# VNW pfet_06v0 ad=0.537p pd=3.32u as=0.537p ps=3.32u w=1.22u l=1u
X3 a_4156_375# a_4068_472# VSS VPW nfet_06v0 ad=0.361p pd=2.52u as=0.361p ps=2.52u w=0.82u l=1u
X4 a_5500_375# a_5412_472# VSS VPW nfet_06v0 ad=0.361p pd=2.52u as=0.361p ps=2.52u w=0.82u l=1u
X5 a_572_375# a_484_472# VSS VPW nfet_06v0 ad=0.361p pd=2.52u as=0.361p ps=2.52u w=0.82u l=1u
X6 VDD a_5052_375# a_4964_472# VNW pfet_06v0 ad=0.537p pd=3.32u as=0.537p ps=3.32u w=1.22u l=1u
X7 VDD a_6844_375# a_6756_472# VNW pfet_06v0 ad=0.537p pd=3.32u as=0.537p ps=3.32u w=1.22u l=1u
X8 VDD a_1916_375# a_1828_472# VNW pfet_06v0 ad=0.537p pd=3.32u as=0.537p ps=3.32u w=1.22u l=1u
X9 a_124_375# a_36_472# VSS VPW nfet_06v0 ad=0.361p pd=2.52u as=0.361p ps=2.52u w=0.82u l=1u
X10 a_5052_375# a_4964_472# VSS VPW nfet_06v0 ad=0.361p pd=2.52u as=0.361p ps=2.52u w=0.82u l=1u
X11 a_1916_375# a_1828_472# VSS VPW nfet_06v0 ad=0.361p pd=2.52u as=0.361p ps=2.52u w=0.82u l=1u
X12 VDD a_4604_375# a_4516_472# VNW pfet_06v0 ad=0.537p pd=3.32u as=0.537p ps=3.32u w=1.22u l=1u
X13 a_1468_375# a_1380_472# VSS VPW nfet_06v0 ad=0.361p pd=2.52u as=0.361p ps=2.52u w=0.82u l=1u
X14 a_2812_375# a_2724_472# VSS VPW nfet_06v0 ad=0.361p pd=2.52u as=0.361p ps=2.52u w=0.82u l=1u
X15 VDD a_3260_375# a_3172_472# VNW pfet_06v0 ad=0.537p pd=3.32u as=0.537p ps=3.32u w=1.22u l=1u
X16 a_2364_375# a_2276_472# VSS VPW nfet_06v0 ad=0.361p pd=2.52u as=0.361p ps=2.52u w=0.82u l=1u
X17 a_5948_375# a_5860_472# VSS VPW nfet_06v0 ad=0.361p pd=2.52u as=0.361p ps=2.52u w=0.82u l=1u
X18 VDD a_2812_375# a_2724_472# VNW pfet_06v0 ad=0.537p pd=3.32u as=0.537p ps=3.32u w=1.22u l=1u
X19 a_3260_375# a_3172_472# VSS VPW nfet_06v0 ad=0.361p pd=2.52u as=0.361p ps=2.52u w=0.82u l=1u
X20 VDD a_1020_375# a_932_472# VNW pfet_06v0 ad=0.537p pd=3.32u as=0.537p ps=3.32u w=1.22u l=1u
X21 VDD a_5500_375# a_5412_472# VNW pfet_06v0 ad=0.537p pd=3.32u as=0.537p ps=3.32u w=1.22u l=1u
X22 a_6844_375# a_6756_472# VSS VPW nfet_06v0 ad=0.361p pd=2.52u as=0.361p ps=2.52u w=0.82u l=1u
X23 a_6396_375# a_6308_472# VSS VPW nfet_06v0 ad=0.361p pd=2.52u as=0.361p ps=2.52u w=0.82u l=1u
X24 VDD a_6396_375# a_6308_472# VNW pfet_06v0 ad=0.537p pd=3.32u as=0.537p ps=3.32u w=1.22u l=1u
X25 VDD a_1468_375# a_1380_472# VNW pfet_06v0 ad=0.537p pd=3.32u as=0.537p ps=3.32u w=1.22u l=1u
X26 VDD a_4156_375# a_4068_472# VNW pfet_06v0 ad=0.537p pd=3.32u as=0.537p ps=3.32u w=1.22u l=1u
X27 VDD a_5948_375# a_5860_472# VNW pfet_06v0 ad=0.537p pd=3.32u as=0.537p ps=3.32u w=1.22u l=1u
X28 VDD a_124_375# a_36_472# VNW pfet_06v0 ad=0.537p pd=3.32u as=0.537p ps=3.32u w=1.22u l=1u
X29 a_3708_375# a_3620_472# VSS VPW nfet_06v0 ad=0.361p pd=2.52u as=0.361p ps=2.52u w=0.82u l=1u
X30 VDD a_3708_375# a_3620_472# VNW pfet_06v0 ad=0.537p pd=3.32u as=0.537p ps=3.32u w=1.22u l=1u
X31 a_1020_375# a_932_472# VSS VPW nfet_06v0 ad=0.361p pd=2.52u as=0.361p ps=2.52u w=0.82u l=1u
.ends

.subckt gf180mcu_fd_sc_mcu7t5v0__buf_4 Z I VDD VSS VNW VPW
X0 Z a_224_472# VDD VNW pfet_06v0 ad=0.378p pd=1.84u as=0.378p ps=1.84u w=1.22u l=0.5u
X1 Z a_224_472# VSS VPW nfet_06v0 ad=0.213p pd=1.34u as=0.213p ps=1.34u w=0.82u l=0.6u
X2 VDD a_224_472# Z VNW pfet_06v0 ad=0.537p pd=3.32u as=0.378p ps=1.84u w=1.22u l=0.5u
X3 a_224_472# I VSS VPW nfet_06v0 ad=0.213p pd=1.34u as=0.361p ps=2.52u w=0.82u l=0.6u
X4 VDD I a_224_472# VNW pfet_06v0 ad=0.378p pd=1.84u as=0.378p ps=1.84u w=1.22u l=0.5u
X5 Z a_224_472# VDD VNW pfet_06v0 ad=0.378p pd=1.84u as=0.378p ps=1.84u w=1.22u l=0.5u
X6 VDD a_224_472# Z VNW pfet_06v0 ad=0.378p pd=1.84u as=0.378p ps=1.84u w=1.22u l=0.5u
X7 VSS a_224_472# Z VPW nfet_06v0 ad=0.361p pd=2.52u as=0.213p ps=1.34u w=0.82u l=0.6u
X8 VSS a_224_472# Z VPW nfet_06v0 ad=0.213p pd=1.34u as=0.213p ps=1.34u w=0.82u l=0.6u
X9 a_224_472# I VDD VNW pfet_06v0 ad=0.378p pd=1.84u as=0.537p ps=3.32u w=1.22u l=0.5u
X10 VSS I a_224_472# VPW nfet_06v0 ad=0.213p pd=1.34u as=0.213p ps=1.34u w=0.82u l=0.6u
X11 Z a_224_472# VSS VPW nfet_06v0 ad=0.213p pd=1.34u as=0.213p ps=1.34u w=0.82u l=0.6u
.ends

.subckt gf180mcu_fd_sc_mcu7t5v0__buf_8 Z I VDD VSS VNW VPW
X0 a_224_472# I VDD VNW pfet_06v0 ad=0.378p pd=1.84u as=0.378p ps=1.84u w=1.22u l=0.5u
X1 Z a_224_472# VDD VNW pfet_06v0 ad=0.378p pd=1.84u as=0.378p ps=1.84u w=1.22u l=0.5u
X2 a_224_472# I VSS VPW nfet_06v0 ad=0.213p pd=1.34u as=0.213p ps=1.34u w=0.82u l=0.6u
X3 VSS a_224_472# Z VPW nfet_06v0 ad=0.361p pd=2.52u as=0.213p ps=1.34u w=0.82u l=0.6u
X4 VDD a_224_472# Z VNW pfet_06v0 ad=0.378p pd=1.84u as=0.378p ps=1.84u w=1.22u l=0.5u
X5 Z a_224_472# VDD VNW pfet_06v0 ad=0.378p pd=1.84u as=0.378p ps=1.84u w=1.22u l=0.5u
X6 a_224_472# I VSS VPW nfet_06v0 ad=0.213p pd=1.34u as=0.361p ps=2.52u w=0.82u l=0.6u
X7 Z a_224_472# VSS VPW nfet_06v0 ad=0.213p pd=1.34u as=0.213p ps=1.34u w=0.82u l=0.6u
X8 VDD a_224_472# Z VNW pfet_06v0 ad=0.378p pd=1.84u as=0.378p ps=1.84u w=1.22u l=0.5u
X9 Z a_224_472# VSS VPW nfet_06v0 ad=0.213p pd=1.34u as=0.213p ps=1.34u w=0.82u l=0.6u
X10 Z a_224_472# VSS VPW nfet_06v0 ad=0.213p pd=1.34u as=0.213p ps=1.34u w=0.82u l=0.6u
X11 VDD I a_224_472# VNW pfet_06v0 ad=0.378p pd=1.84u as=0.378p ps=1.84u w=1.22u l=0.5u
X12 VDD a_224_472# Z VNW pfet_06v0 ad=0.378p pd=1.84u as=0.378p ps=1.84u w=1.22u l=0.5u
X13 Z a_224_472# VDD VNW pfet_06v0 ad=0.378p pd=1.84u as=0.378p ps=1.84u w=1.22u l=0.5u
X14 VSS a_224_472# Z VPW nfet_06v0 ad=0.213p pd=1.34u as=0.213p ps=1.34u w=0.82u l=0.6u
X15 VDD I a_224_472# VNW pfet_06v0 ad=0.378p pd=1.84u as=0.378p ps=1.84u w=1.22u l=0.5u
X16 VSS a_224_472# Z VPW nfet_06v0 ad=0.213p pd=1.34u as=0.213p ps=1.34u w=0.82u l=0.6u
X17 VDD a_224_472# Z VNW pfet_06v0 ad=0.537p pd=3.32u as=0.378p ps=1.84u w=1.22u l=0.5u
X18 VSS a_224_472# Z VPW nfet_06v0 ad=0.213p pd=1.34u as=0.213p ps=1.34u w=0.82u l=0.6u
X19 Z a_224_472# VDD VNW pfet_06v0 ad=0.378p pd=1.84u as=0.378p ps=1.84u w=1.22u l=0.5u
X20 VSS I a_224_472# VPW nfet_06v0 ad=0.213p pd=1.34u as=0.213p ps=1.34u w=0.82u l=0.6u
X21 a_224_472# I VDD VNW pfet_06v0 ad=0.378p pd=1.84u as=0.537p ps=3.32u w=1.22u l=0.5u
X22 VSS I a_224_472# VPW nfet_06v0 ad=0.213p pd=1.34u as=0.213p ps=1.34u w=0.82u l=0.6u
X23 Z a_224_472# VSS VPW nfet_06v0 ad=0.213p pd=1.34u as=0.213p ps=1.34u w=0.82u l=0.6u
.ends

.subckt gf180mcu_fd_sc_mcu7t5v0__clkinv_1 VDD VSS I ZN VNW VPW
X0 ZN I VSS VPW nfet_06v0 ad=0.211p pd=1.84u as=0.211p ps=1.84u w=0.48u l=0.6u
X1 ZN I VDD VNW pfet_06v0 ad=0.537p pd=3.32u as=0.537p ps=3.32u w=1.22u l=0.5u
.ends

.subckt gf180mcu_fd_sc_mcu7t5v0__oai211_1 B C VDD VSS ZN A1 A2 VNW VPW
X0 a_692_68# B a_36_68# VPW nfet_06v0 ad=0.213p pd=1.34u as=0.213p ps=1.34u w=0.82u l=0.6u
X1 ZN A2 a_36_68# VPW nfet_06v0 ad=0.213p pd=1.34u as=0.361p ps=2.52u w=0.82u l=0.6u
X2 a_244_472# A2 VDD VNW pfet_06v0 ad=0.317p pd=1.74u as=0.598p ps=3.42u w=1.22u l=0.5u
X3 VDD B ZN VNW pfet_06v0 ad=0.256p pd=1.5u as=0.402p ps=1.94u w=0.985u l=0.5u
X4 ZN A1 a_244_472# VNW pfet_06v0 ad=0.402p pd=1.94u as=0.317p ps=1.74u w=1.22u l=0.5u
X5 ZN C VDD VNW pfet_06v0 ad=0.443p pd=2.87u as=0.256p ps=1.5u w=0.985u l=0.5u
X6 VSS C a_692_68# VPW nfet_06v0 ad=0.361p pd=2.52u as=0.213p ps=1.34u w=0.82u l=0.6u
X7 a_36_68# A1 ZN VPW nfet_06v0 ad=0.213p pd=1.34u as=0.213p ps=1.34u w=0.82u l=0.6u
.ends

.subckt gf180mcu_fd_sc_mcu7t5v0__clkbuf_8 Z VSS VDD I VNW VPW
X0 Z a_224_552# VSS VPW nfet_06v0 ad=0.112p pd=0.95u as=0.189p ps=1.74u w=0.43u l=0.6u
X1 VSS a_224_552# Z VPW nfet_06v0 ad=0.112p pd=0.95u as=0.112p ps=0.95u w=0.43u l=0.6u
X2 VDD a_224_552# Z VNW pfet_06v0 ad=0.317p pd=1.74u as=0.439p ps=1.94u w=1.22u l=0.5u
X3 a_224_552# I VDD VNW pfet_06v0 ad=0.295p pd=1.54u as=0.361p ps=2.52u w=0.82u l=0.5u
X4 VDD I a_224_552# VNW pfet_06v0 ad=0.213p pd=1.34u as=0.295p ps=1.54u w=0.82u l=0.5u
X5 Z a_224_552# VDD VNW pfet_06v0 ad=0.439p pd=1.94u as=0.317p ps=1.74u w=1.22u l=0.5u
X6 VDD a_224_552# Z VNW pfet_06v0 ad=0.317p pd=1.74u as=0.439p ps=1.94u w=1.22u l=0.5u