* NGSPICE file created from temp_sensor.ext - technology: gf180mcuD

* Black-box entry subcircuit for gf180mcu_fd_sc_mcu7t5v0__fill_2 abstract view
.subckt gf180mcu_fd_sc_mcu7t5v0__fill_2 VDD VNW VPW VSS
.ends

* Black-box entry subcircuit for gf180mcu_fd_sc_mcu7t5v0__fill_1 abstract view
.subckt gf180mcu_fd_sc_mcu7t5v0__fill_1 VDD VNW VPW VSS
.ends

* Black-box entry subcircuit for gf180mcu_fd_sc_mcu7t5v0__filltie abstract view
.subckt gf180mcu_fd_sc_mcu7t5v0__filltie VDD VSS
.ends

* Black-box entry subcircuit for gf180mcu_fd_sc_mcu7t5v0__antenna abstract view
.subckt gf180mcu_fd_sc_mcu7t5v0__antenna I VDD VNW VPW VSS
.ends

* Black-box entry subcircuit for gf180mcu_fd_sc_mcu7t5v0__fillcap_4 abstract view
.subckt gf180mcu_fd_sc_mcu7t5v0__fillcap_4 VDD VNW VPW VSS
.ends

* Black-box entry subcircuit for gf180mcu_fd_sc_mcu7t5v0__inv_1 abstract view
.subckt gf180mcu_fd_sc_mcu7t5v0__inv_1 I ZN VDD VNW VPW VSS
.ends

* Black-box entry subcircuit for gf180mcu_fd_sc_mcu7t5v0__nor2_1 abstract view
.subckt gf180mcu_fd_sc_mcu7t5v0__nor2_1 A1 A2 ZN VDD VNW VPW VSS
.ends

* Black-box entry subcircuit for gf180mcu_fd_sc_mcu7t5v0__oai22_2 abstract view
.subckt gf180mcu_fd_sc_mcu7t5v0__oai22_2 A1 A2 B1 B2 ZN VDD VNW VPW VSS
.ends

* Black-box entry subcircuit for gf180mcu_fd_sc_mcu7t5v0__aoi21_1 abstract view
.subckt gf180mcu_fd_sc_mcu7t5v0__aoi21_1 A1 A2 B ZN VDD VNW VPW VSS
.ends

* Black-box entry subcircuit for gf180mcu_fd_sc_mcu7t5v0__buf_4 abstract view
.subckt gf180mcu_fd_sc_mcu7t5v0__buf_4 I Z VDD VNW VPW VSS
.ends

* Black-box entry subcircuit for gf180mcu_fd_sc_mcu7t5v0__nand2_1 abstract view
.subckt gf180mcu_fd_sc_mcu7t5v0__nand2_1 A1 A2 ZN VDD VNW VPW VSS
.ends

* Black-box entry subcircuit for gf180mcu_fd_sc_mcu7t5v0__clkbuf_1 abstract view
.subckt gf180mcu_fd_sc_mcu7t5v0__clkbuf_1 I Z VDD VNW VPW VSS
.ends

* Black-box entry subcircuit for gf180mcu_fd_sc_mcu7t5v0__aoi221_4 abstract view
.subckt gf180mcu_fd_sc_mcu7t5v0__aoi221_4 A1 A2 B1 B2 C ZN VDD VNW VPW VSS
.ends

* Black-box entry subcircuit for gf180mcu_fd_sc_mcu7t5v0__fillcap_8 abstract view
.subckt gf180mcu_fd_sc_mcu7t5v0__fillcap_8 VDD VNW VPW VSS
.ends

* Black-box entry subcircuit for gf180mcu_fd_sc_mcu7t5v0__or2_1 abstract view
.subckt gf180mcu_fd_sc_mcu7t5v0__or2_1 A1 A2 Z VDD VNW VPW VSS
.ends

* Black-box entry subcircuit for gf180mcu_fd_sc_mcu7t5v0__fillcap_16 abstract view
.subckt gf180mcu_fd_sc_mcu7t5v0__fillcap_16 VDD VNW VPW VSS
.ends

* Black-box entry subcircuit for gf180mcu_fd_sc_mcu7t5v0__oai22_1 abstract view
.subckt gf180mcu_fd_sc_mcu7t5v0__oai22_1 A1 A2 B1 B2 ZN VDD VNW VPW VSS
.ends

* Black-box entry subcircuit for gf180mcu_fd_sc_mcu7t5v0__oai32_4 abstract view
.subckt gf180mcu_fd_sc_mcu7t5v0__oai32_4 A1 A2 A3 B1 B2 ZN VDD VNW VPW VSS
.ends

* Black-box entry subcircuit for gf180mcu_fd_sc_mcu7t5v0__nand4_4 abstract view
.subckt gf180mcu_fd_sc_mcu7t5v0__nand4_4 A1 A2 A3 A4 ZN VDD VNW VPW VSS
.ends

* Black-box entry subcircuit for gf180mcu_fd_sc_mcu7t5v0__nand3_2 abstract view
.subckt gf180mcu_fd_sc_mcu7t5v0__nand3_2 A1 A2 A3 ZN VDD VNW VPW VSS
.ends

* Black-box entry subcircuit for gf180mcu_fd_sc_mcu7t5v0__inv_3 abstract view
.subckt gf180mcu_fd_sc_mcu7t5v0__inv_3 I ZN VDD VNW VPW VSS
.ends

* Black-box entry subcircuit for gf180mcu_fd_sc_mcu7t5v0__clkinv_1 abstract view
.subckt gf180mcu_fd_sc_mcu7t5v0__clkinv_1 I ZN VDD VNW VPW VSS
.ends

* Black-box entry subcircuit for gf180mcu_fd_sc_mcu7t5v0__fillcap_32 abstract view
.subckt gf180mcu_fd_sc_mcu7t5v0__fillcap_32 VDD VNW VPW VSS
.ends

* Black-box entry subcircuit for gf180mcu_fd_sc_mcu7t5v0__aoi22_2 abstract view
.subckt gf180mcu_fd_sc_mcu7t5v0__aoi22_2 A1 A2 B1 B2 ZN VDD VNW VPW VSS
.ends

* Black-box entry subcircuit for gf180mcu_fd_sc_mcu7t5v0__dffq_2 abstract view
.subckt gf180mcu_fd_sc_mcu7t5v0__dffq_2 D CLK Q VDD VNW VPW VSS
.ends

* Black-box entry subcircuit for gf180mcu_fd_sc_mcu7t5v0__dffq_1 abstract view
.subckt gf180mcu_fd_sc_mcu7t5v0__dffq_1 D CLK Q VDD VNW VPW VSS
.ends

* Black-box entry subcircuit for gf180mcu_fd_sc_mcu7t5v0__invz_2 abstract view
.subckt gf180mcu_fd_sc_mcu7t5v0__invz_2 EN I ZN VDD VNW VPW VSS
.ends

* Black-box entry subcircuit for gf180mcu_fd_sc_mcu7t5v0__xnor2_1 abstract view
.subckt gf180mcu_fd_sc_mcu7t5v0__xnor2_1 A1 A2 ZN VDD VNW VPW VSS
.ends

* Black-box entry subcircuit for gf180mcu_fd_sc_mcu7t5v0__oai21_2 abstract view
.subckt gf180mcu_fd_sc_mcu7t5v0__oai21_2 A1 A2 B ZN VDD VNW VPW VSS
.ends

* Black-box entry subcircuit for gf180mcu_fd_sc_mcu7t5v0__oai21_1 abstract view
.subckt gf180mcu_fd_sc_mcu7t5v0__oai21_1 A1 A2 B ZN VDD VNW VPW VSS
.ends

* Black-box entry subcircuit for gf180mcu_fd_sc_mcu7t5v0__nor2_2 abstract view
.subckt gf180mcu_fd_sc_mcu7t5v0__nor2_2 A1 A2 ZN VDD VNW VPW VSS
.ends

* Black-box entry subcircuit for gf180mcu_fd_sc_mcu7t5v0__aoi22_1 abstract view
.subckt gf180mcu_fd_sc_mcu7t5v0__aoi22_1 A1 A2 B1 B2 ZN VDD VNW VPW VSS
.ends

* Black-box entry subcircuit for gf180mcu_fd_sc_mcu7t5v0__endcap abstract view
.subckt gf180mcu_fd_sc_mcu7t5v0__endcap VDD VSS
.ends

* Black-box entry subcircuit for gf180mcu_fd_sc_mcu7t5v0__clkbuf_8 abstract view
.subckt gf180mcu_fd_sc_mcu7t5v0__clkbuf_8 I Z VDD VNW VPW VSS
.ends

* Black-box entry subcircuit for gf180mcu_fd_sc_mcu7t5v0__or4_1 abstract view
.subckt gf180mcu_fd_sc_mcu7t5v0__or4_1 A1 A2 A3 A4 Z VDD VNW VPW VSS
.ends

* Black-box entry subcircuit for gf180mcu_fd_sc_mcu7t5v0__nor2_4 abstract view
.subckt gf180mcu_fd_sc_mcu7t5v0__nor2_4 A1 A2 ZN VDD VNW VPW VSS
.ends

* Black-box entry subcircuit for gf180mcu_fd_sc_mcu7t5v0__nand4_2 abstract view
.subckt gf180mcu_fd_sc_mcu7t5v0__nand4_2 A1 A2 A3 A4 ZN VDD VNW VPW VSS
.ends

* Black-box entry subcircuit for gf180mcu_fd_sc_mcu7t5v0__invz_4 abstract view
.subckt gf180mcu_fd_sc_mcu7t5v0__invz_4 EN I ZN VDD VNW VPW VSS
.ends

* Black-box entry subcircuit for gf180mcu_fd_sc_mcu7t5v0__fillcap_64 abstract view
.subckt gf180mcu_fd_sc_mcu7t5v0__fillcap_64 VDD VNW VPW VSS
.ends

* Black-box entry subcircuit for gf180mcu_fd_sc_mcu7t5v0__invz_1 abstract view
.subckt gf180mcu_fd_sc_mcu7t5v0__invz_1 EN I ZN VDD VNW VPW VSS
.ends

* Black-box entry subcircuit for gf180mcu_fd_sc_mcu7t5v0__and2_1 abstract view
.subckt gf180mcu_fd_sc_mcu7t5v0__and2_1 A1 A2 Z VDD VNW VPW VSS
.ends

* Black-box entry subcircuit for gf180mcu_fd_sc_mcu7t5v0__nand2_4 abstract view
.subckt gf180mcu_fd_sc_mcu7t5v0__nand2_4 A1 A2 ZN VDD VNW VPW VSS
.ends

* Black-box entry subcircuit for gf180mcu_fd_sc_mcu7t5v0__nor4_4 abstract view
.subckt gf180mcu_fd_sc_mcu7t5v0__nor4_4 A1 A2 A3 A4 ZN VDD VNW VPW VSS
.ends

* Black-box entry subcircuit for gf180mcu_fd_sc_mcu7t5v0__oai32_2 abstract view
.subckt gf180mcu_fd_sc_mcu7t5v0__oai32_2 A1 A2 A3 B1 B2 ZN VDD VNW VPW VSS
.ends

* Black-box entry subcircuit for gf180mcu_fd_sc_mcu7t5v0__invz_3 abstract view
.subckt gf180mcu_fd_sc_mcu7t5v0__invz_3 EN I ZN VDD VNW VPW VSS
.ends

* Black-box entry subcircuit for gf180mcu_fd_sc_mcu7t5v0__aoi211_1 abstract view
.subckt gf180mcu_fd_sc_mcu7t5v0__aoi211_1 A1 A2 B C ZN VDD VNW VPW VSS
.ends

* Black-box entry subcircuit for gf180mcu_fd_sc_mcu7t5v0__buf_2 abstract view
.subckt gf180mcu_fd_sc_mcu7t5v0__buf_2 I Z VDD VNW VPW VSS
.ends

* Black-box entry subcircuit for gf180mcu_fd_sc_mcu7t5v0__nand4_1 abstract view
.subckt gf180mcu_fd_sc_mcu7t5v0__nand4_1 A1 A2 A3 A4 ZN VDD VNW VPW VSS
.ends

* Black-box entry subcircuit for gf180mcu_fd_sc_mcu7t5v0__and4_2 abstract view
.subckt gf180mcu_fd_sc_mcu7t5v0__and4_2 A1 A2 A3 A4 Z VDD VNW VPW VSS
.ends

* Black-box entry subcircuit for gf180mcu_fd_sc_mcu7t5v0__nor4_2 abstract view
.subckt gf180mcu_fd_sc_mcu7t5v0__nor4_2 A1 A2 A3 A4 ZN VDD VNW VPW VSS
.ends

* Black-box entry subcircuit for gf180mcu_fd_sc_mcu7t5v0__buf_1 abstract view
.subckt gf180mcu_fd_sc_mcu7t5v0__buf_1 I Z VDD VNW VPW VSS
.ends

* Black-box entry subcircuit for gf180mcu_fd_sc_mcu7t5v0__oai21_4 abstract view
.subckt gf180mcu_fd_sc_mcu7t5v0__oai21_4 A1 A2 B ZN VDD VNW VPW VSS
.ends

* Black-box entry subcircuit for gf180mcu_fd_sc_mcu7t5v0__aoi221_2 abstract view
.subckt gf180mcu_fd_sc_mcu7t5v0__aoi221_2 A1 A2 B1 B2 C ZN VDD VNW VPW VSS
.ends

* Black-box entry subcircuit for gf180mcu_fd_sc_mcu7t5v0__aoi21_4 abstract view
.subckt gf180mcu_fd_sc_mcu7t5v0__aoi21_4 A1 A2 B ZN VDD VNW VPW VSS
.ends

* Black-box entry subcircuit for gf180mcu_fd_sc_mcu7t5v0__clkbuf_16 abstract view
.subckt gf180mcu_fd_sc_mcu7t5v0__clkbuf_16 I Z VDD VNW VPW VSS
.ends

* Black-box entry subcircuit for gf180mcu_fd_sc_mcu7t5v0__nand3_1 abstract view
.subckt gf180mcu_fd_sc_mcu7t5v0__nand3_1 A1 A2 A3 ZN VDD VNW VPW VSS
.ends

* Black-box entry subcircuit for gf180mcu_fd_sc_mcu7t5v0__and3_1 abstract view
.subckt gf180mcu_fd_sc_mcu7t5v0__and3_1 A1 A2 A3 Z VDD VNW VPW VSS
.ends

* Black-box entry subcircuit for gf180mcu_fd_sc_mcu7t5v0__aoi211_2 abstract view
.subckt gf180mcu_fd_sc_mcu7t5v0__aoi211_2 A1 A2 B C ZN VDD VNW VPW VSS
.ends

* Black-box entry subcircuit for gf180mcu_fd_sc_mcu7t5v0__nor3_2 abstract view
.subckt gf180mcu_fd_sc_mcu7t5v0__nor3_2 A1 A2 A3 ZN VDD VNW VPW VSS
.ends

* Black-box entry subcircuit for gf180mcu_fd_sc_mcu7t5v0__nand2_2 abstract view
.subckt gf180mcu_fd_sc_mcu7t5v0__nand2_2 A1 A2 ZN VDD VNW VPW VSS
.ends

* Black-box entry subcircuit for gf180mcu_fd_sc_mcu7t5v0__and3_4 abstract view
.subckt gf180mcu_fd_sc_mcu7t5v0__and3_4 A1 A2 A3 Z VDD VNW VPW VSS
.ends

* Black-box entry subcircuit for gf180mcu_fd_sc_mcu7t5v0__mux2_2 abstract view
.subckt gf180mcu_fd_sc_mcu7t5v0__mux2_2 I0 I1 S Z VDD VNW VPW VSS
.ends

* Black-box entry subcircuit for gf180mcu_fd_sc_mcu7t5v0__and4_1 abstract view
.subckt gf180mcu_fd_sc_mcu7t5v0__and4_1 A1 A2 A3 A4 Z VDD VNW VPW VSS
.ends

* Black-box entry subcircuit for gf180mcu_fd_sc_mcu7t5v0__and2_2 abstract view
.subckt gf180mcu_fd_sc_mcu7t5v0__and2_2 A1 A2 Z VDD VNW VPW VSS
.ends

* Black-box entry subcircuit for gf180mcu_fd_sc_mcu7t5v0__nor3_1 abstract view
.subckt gf180mcu_fd_sc_mcu7t5v0__nor3_1 A1 A2 A3 ZN VDD VNW VPW VSS
.ends

* Black-box entry subcircuit for gf180mcu_fd_sc_mcu7t5v0__oai32_1 abstract view
.subckt gf180mcu_fd_sc_mcu7t5v0__oai32_1 A1 A2 A3 B1 B2 ZN VDD VNW VPW VSS
.ends

* Black-box entry subcircuit for gf180mcu_fd_sc_mcu7t5v0__nor3_4 abstract view
.subckt gf180mcu_fd_sc_mcu7t5v0__nor3_4 A1 A2 A3 ZN VDD VNW VPW VSS
.ends

* Black-box entry subcircuit for gf180mcu_fd_sc_mcu7t5v0__oai31_2 abstract view
.subckt gf180mcu_fd_sc_mcu7t5v0__oai31_2 A1 A2 A3 B ZN VDD VNW VPW VSS
.ends

* Black-box entry subcircuit for gf180mcu_fd_sc_mcu7t5v0__aoi211_4 abstract view
.subckt gf180mcu_fd_sc_mcu7t5v0__aoi211_4 A1 A2 B C ZN VDD VNW VPW VSS
.ends

* Black-box entry subcircuit for gf180mcu_fd_sc_mcu7t5v0__oai211_1 abstract view
.subckt gf180mcu_fd_sc_mcu7t5v0__oai211_1 A1 A2 B C ZN VDD VNW VPW VSS
.ends

* Black-box entry subcircuit for gf180mcu_fd_sc_mcu7t5v0__inv_4 abstract view
.subckt gf180mcu_fd_sc_mcu7t5v0__inv_4 I ZN VDD VNW VPW VSS
.ends

* Black-box entry subcircuit for gf180mcu_fd_sc_mcu7t5v0__tiel abstract view
.subckt gf180mcu_fd_sc_mcu7t5v0__tiel ZN VDD VNW VPW VSS
.ends

* Black-box entry subcircuit for gf180mcu_fd_sc_mcu7t5v0__buf_12 abstract view
.subckt gf180mcu_fd_sc_mcu7t5v0__buf_12 I Z VDD VNW VPW VSS
.ends

* Black-box entry subcircuit for gf180mcu_fd_sc_mcu7t5v0__clkinv_8 abstract view
.subckt gf180mcu_fd_sc_mcu7t5v0__clkinv_8 I ZN VDD VNW VPW VSS
.ends

* Black-box entry subcircuit for gf180mcu_fd_sc_mcu7t5v0__xor2_1 abstract view
.subckt gf180mcu_fd_sc_mcu7t5v0__xor2_1 A1 A2 Z VDD VNW VPW VSS
.ends

* Black-box entry subcircuit for gf180mcu_fd_sc_mcu7t5v0__clkbuf_12 abstract view
.subckt gf180mcu_fd_sc_mcu7t5v0__clkbuf_12 I Z VDD VNW VPW VSS
.ends

* Black-box entry subcircuit for gf180mcu_fd_sc_mcu7t5v0__oai211_2 abstract view
.subckt gf180mcu_fd_sc_mcu7t5v0__oai211_2 A1 A2 B C ZN VDD VNW VPW VSS
.ends

* Black-box entry subcircuit for gf180mcu_fd_sc_mcu7t5v0__oai31_1 abstract view
.subckt gf180mcu_fd_sc_mcu7t5v0__oai31_1 A1 A2 A3 B ZN VDD VNW VPW VSS
.ends

* Black-box entry subcircuit for gf180mcu_fd_sc_mcu7t5v0__inv_2 abstract view
.subckt gf180mcu_fd_sc_mcu7t5v0__inv_2 I ZN VDD VNW VPW VSS
.ends

* Black-box entry subcircuit for gf180mcu_fd_sc_mcu7t5v0__or2_2 abstract view
.subckt gf180mcu_fd_sc_mcu7t5v0__or2_2 A1 A2 Z VDD VNW VPW VSS
.ends

* Black-box entry subcircuit for gf180mcu_fd_sc_mcu7t5v0__clkbuf_3 abstract view
.subckt gf180mcu_fd_sc_mcu7t5v0__clkbuf_3 I Z VDD VNW VPW VSS
.ends

* Black-box entry subcircuit for gf180mcu_fd_sc_mcu7t5v0__clkinv_2 abstract view
.subckt gf180mcu_fd_sc_mcu7t5v0__clkinv_2 I ZN VDD VNW VPW VSS
.ends

* Black-box entry subcircuit for gf180mcu_fd_sc_mcu7t5v0__buf_8 abstract view
.subckt gf180mcu_fd_sc_mcu7t5v0__buf_8 I Z VDD VNW VPW VSS
.ends

* Black-box entry subcircuit for gf180mcu_fd_sc_mcu7t5v0__aoi221_1 abstract view
.subckt gf180mcu_fd_sc_mcu7t5v0__aoi221_1 A1 A2 B1 B2 C ZN VDD VNW VPW VSS
.ends

* Black-box entry subcircuit for gf180mcu_fd_sc_mcu7t5v0__clkinv_12 abstract view
.subckt gf180mcu_fd_sc_mcu7t5v0__clkinv_12 I ZN VDD VNW VPW VSS
.ends

* Black-box entry subcircuit for gf180mcu_fd_sc_mcu7t5v0__nand3_4 abstract view
.subckt gf180mcu_fd_sc_mcu7t5v0__nand3_4 A1 A2 A3 ZN VDD VNW VPW VSS
.ends

* Black-box entry subcircuit for gf180mcu_fd_sc_mcu7t5v0__or3_1 abstract view
.subckt gf180mcu_fd_sc_mcu7t5v0__or3_1 A1 A2 A3 Z VDD VNW VPW VSS
.ends

* Black-box entry subcircuit for gf180mcu_fd_sc_mcu7t5v0__aoi21_2 abstract view
.subckt gf180mcu_fd_sc_mcu7t5v0__aoi21_2 A1 A2 B ZN VDD VNW VPW VSS
.ends

* Black-box entry subcircuit for gf180mcu_fd_sc_mcu7t5v0__clkinv_4 abstract view
.subckt gf180mcu_fd_sc_mcu7t5v0__clkinv_4 I ZN VDD VNW VPW VSS
.ends

* Black-box entry subcircuit for gf180mcu_fd_sc_mcu7t5v0__and3_2 abstract view
.subckt gf180mcu_fd_sc_mcu7t5v0__and3_2 A1 A2 A3 Z VDD VNW VPW VSS
.ends

* Black-box entry subcircuit for gf180mcu_fd_sc_mcu7t5v0__and4_4 abstract view
.subckt gf180mcu_fd_sc_mcu7t5v0__and4_4 A1 A2 A3 A4 Z VDD VNW VPW VSS
.ends

* Black-box entry subcircuit for gf180mcu_fd_sc_mcu7t5v0__oai221_1 abstract view
.subckt gf180mcu_fd_sc_mcu7t5v0__oai221_1 A1 A2 B1 B2 C ZN VDD VNW VPW VSS
.ends

* Black-box entry subcircuit for gf180mcu_fd_sc_mcu7t5v0__inv_8 abstract view
.subckt gf180mcu_fd_sc_mcu7t5v0__inv_8 I ZN VDD VNW VPW VSS
.ends

* Black-box entry subcircuit for gf180mcu_fd_sc_mcu7t5v0__buf_3 abstract view
.subckt gf180mcu_fd_sc_mcu7t5v0__buf_3 I Z VDD VNW VPW VSS
.ends

.subckt temp_sensor VDD VSS io_in[0] io_in[1] io_in[2] io_in[3] io_in[4] io_in[5]
+ io_in[6] io_in[7] io_out[0] io_out[1] io_out[2] io_out[3] io_out[4] io_out[5] io_out[6]
+ io_out[7]
XFILLER_0_27_60 VDD VDD VSS VSS gf180mcu_fd_sc_mcu7t5v0__fill_2
XFILLER_0_11_4 VDD VDD VSS VSS gf180mcu_fd_sc_mcu7t5v0__fill_1
XFILLER_0_64_317 VDD VDD VSS VSS gf180mcu_fd_sc_mcu7t5v0__fill_2
XFILLER_0_76_177 VDD VDD VSS VSS gf180mcu_fd_sc_mcu7t5v0__fill_2
XFILLER_0_76_188 VDD VDD VSS VSS gf180mcu_fd_sc_mcu7t5v0__fill_2
XTAP_TAPCELL_ROW_20_312 VDD VSS gf180mcu_fd_sc_mcu7t5v0__filltie
XANTENNA__1206__A1 _0346_ VDD VDD VSS VSS gf180mcu_fd_sc_mcu7t5v0__antenna
XFILLER_0_17_288 VDD VDD VSS VSS gf180mcu_fd_sc_mcu7t5v0__fillcap_4
XFILLER_0_32_247 VDD VDD VSS VSS gf180mcu_fd_sc_mcu7t5v0__fill_1
XFILLER_0_32_269 VDD VDD VSS VSS gf180mcu_fd_sc_mcu7t5v0__fill_2
XTAP_TAPCELL_ROW_68_581 VDD VSS gf180mcu_fd_sc_mcu7t5v0__filltie
XANTENNA__1724__CLK net11 VDD VDD VSS VSS gf180mcu_fd_sc_mcu7t5v0__antenna
Xdec1._061_ dec1.i_tens dec1._001_ VDD VDD VSS VSS gf180mcu_fd_sc_mcu7t5v0__inv_1
XFILLER_0_55_317 VDD VDD VSS VSS gf180mcu_fd_sc_mcu7t5v0__fill_2
XFILLER_0_67_199 VDD VDD VSS VSS gf180mcu_fd_sc_mcu7t5v0__fill_2
XFILLER_0_48_15 VDD VDD VSS VSS gf180mcu_fd_sc_mcu7t5v0__fill_2
XFILLER_0_48_37 VDD VDD VSS VSS gf180mcu_fd_sc_mcu7t5v0__fill_1
XANTENNA_temp1.dac.parallel_cells\[0\].vdac_batch.einvp_batch\[0\].vref_I temp1.dac.parallel_cells\[0\].vdac_batch.vout_notouch_
+ VDD VDD VSS VSS gf180mcu_fd_sc_mcu7t5v0__antenna
X_1270_ net25 _0684_ _0778_ VDD VDD VSS VSS gf180mcu_fd_sc_mcu7t5v0__nor2_1
XFILLER_0_64_14 VDD VDD VSS VSS gf180mcu_fd_sc_mcu7t5v0__fill_2
XFILLER_0_58_155 VDD VDD VSS VSS gf180mcu_fd_sc_mcu7t5v0__fillcap_4
XFILLER_0_58_177 VDD VDD VSS VSS gf180mcu_fd_sc_mcu7t5v0__fill_2
XFILLER_0_73_136 VDD VDD VSS VSS gf180mcu_fd_sc_mcu7t5v0__fill_2
XFILLER_0_73_158 VDD VDD VSS VSS gf180mcu_fd_sc_mcu7t5v0__fillcap_4
XFILLER_0_14_214 VDD VDD VSS VSS gf180mcu_fd_sc_mcu7t5v0__fill_2
XFILLER_0_54_350 VDD VDD VSS VSS gf180mcu_fd_sc_mcu7t5v0__fill_2
X_0985_ _0509_ _0407_ _0408_ _0510_ _0511_ VDD VDD VSS VSS gf180mcu_fd_sc_mcu7t5v0__oai22_2
XFILLER_0_14_247 VDD VDD VSS VSS gf180mcu_fd_sc_mcu7t5v0__fill_1
XFILLER_0_54_383 VDD VDD VSS VSS gf180mcu_fd_sc_mcu7t5v0__fill_2
XFILLER_0_89_66 VDD VDD VSS VSS gf180mcu_fd_sc_mcu7t5v0__fill_2
XFILLER_0_73_6 VDD VDD VSS VSS gf180mcu_fd_sc_mcu7t5v0__fill_1
X_1606_ ctr\[3\] clknet_1_0__leaf__0318_ _0320_ _0193_ VDD VDD VSS VSS gf180mcu_fd_sc_mcu7t5v0__aoi21_1
XANTENNA__0962__A3 _0440_ VDD VDD VSS VSS gf180mcu_fd_sc_mcu7t5v0__antenna
XFILLER_0_59_4 VDD VDD VSS VSS gf180mcu_fd_sc_mcu7t5v0__fill_1
X_1537_ _0782_ _0294_ VDD VDD VSS VSS gf180mcu_fd_sc_mcu7t5v0__buf_4
X_1468_ _0522_ _0791_ _0111_ VDD VDD VSS VSS gf180mcu_fd_sc_mcu7t5v0__nand2_1
X_1399_ _0236_ _0070_ VDD VDD VSS VSS gf180mcu_fd_sc_mcu7t5v0__clkbuf_1
XTAP_TAPCELL_ROW_57_518 VDD VSS gf180mcu_fd_sc_mcu7t5v0__filltie
XANTENNA__1747__CLK net12 VDD VDD VSS VSS gf180mcu_fd_sc_mcu7t5v0__antenna
XTAP_TAPCELL_ROW_65_562 VDD VSS gf180mcu_fd_sc_mcu7t5v0__filltie
XFILLER_0_9_252 VDD VDD VSS VSS gf180mcu_fd_sc_mcu7t5v0__fillcap_4
XFILLER_0_72_191 VDD VDD VSS VSS gf180mcu_fd_sc_mcu7t5v0__fill_1
XTAP_TAPCELL_ROW_88_687 VDD VSS gf180mcu_fd_sc_mcu7t5v0__filltie
XFILLER_0_87_239 VDD VDD VSS VSS gf180mcu_fd_sc_mcu7t5v0__fill_2
Xdec1._113_ dec1._047_ dec1._040_ dec1._051_ dec1._039_ dec1._002_ dec1._052_ VDD
+ VDD VSS VSS gf180mcu_fd_sc_mcu7t5v0__aoi221_4
XFILLER_0_36_350 VDD VDD VSS VSS gf180mcu_fd_sc_mcu7t5v0__fill_2
XFILLER_0_70_139 VDD VDD VSS VSS gf180mcu_fd_sc_mcu7t5v0__fillcap_8
XFILLER_0_59_69 VDD VDD VSS VSS gf180mcu_fd_sc_mcu7t5v0__fill_1
X_1322_ cal_lut\[28\] _0780_ _0801_ VDD VDD VSS VSS gf180mcu_fd_sc_mcu7t5v0__or2_1
XFILLER_0_75_35 VDD VDD VSS VSS gf180mcu_fd_sc_mcu7t5v0__fillcap_16
XFILLER_0_75_24 VDD VDD VSS VSS gf180mcu_fd_sc_mcu7t5v0__fillcap_8
X_1253_ _0704_ _0762_ _0763_ VDD VDD VSS VSS gf180mcu_fd_sc_mcu7t5v0__nor2_1
X_1184_ _0689_ _0690_ _0695_ _0698_ _0699_ VDD VDD VSS VSS gf180mcu_fd_sc_mcu7t5v0__oai22_1
XANTENNA__1621__B ctr\[3\] VDD VDD VSS VSS gf180mcu_fd_sc_mcu7t5v0__antenna
XTAP_TAPCELL_ROW_62_543 VDD VSS gf180mcu_fd_sc_mcu7t5v0__filltie
XFILLER_0_6_255 VDD VDD VSS VSS gf180mcu_fd_sc_mcu7t5v0__fillcap_4
X_0968_ _0455_ _0460_ _0494_ _0433_ cal_lut\[2\] _0495_ VDD VDD VSS VSS gf180mcu_fd_sc_mcu7t5v0__oai32_4
X_0899_ _0358_ _0365_ _0356_ _0413_ _0427_ VDD VDD VSS VSS gf180mcu_fd_sc_mcu7t5v0__nand4_4
XFILLER_0_64_2 VDD VDD VSS VSS gf180mcu_fd_sc_mcu7t5v0__fillcap_4
XFILLER_0_10_283 VDD VDD VSS VSS gf180mcu_fd_sc_mcu7t5v0__fill_1
XANTENNA__0871__A2 _0395_ VDD VDD VSS VSS gf180mcu_fd_sc_mcu7t5v0__antenna
XFILLER_0_65_401 VDD VDD VSS VSS gf180mcu_fd_sc_mcu7t5v0__fillcap_16
XFILLER_0_18_361 VDD VDD VSS VSS gf180mcu_fd_sc_mcu7t5v0__fill_2
XFILLER_0_92_297 VDD VDD VSS VSS gf180mcu_fd_sc_mcu7t5v0__fillcap_4
XFILLER_0_33_397 VDD VDD VSS VSS gf180mcu_fd_sc_mcu7t5v0__fillcap_8
XTAP_TAPCELL_ROW_76_624 VDD VSS gf180mcu_fd_sc_mcu7t5v0__filltie
XANTENNA__0836__I _0363_ VDD VDD VSS VSS gf180mcu_fd_sc_mcu7t5v0__antenna
XFILLER_0_61_37 VDD VDD VSS VSS gf180mcu_fd_sc_mcu7t5v0__fillcap_4
XFILLER_0_28_136 VDD VDD VSS VSS gf180mcu_fd_sc_mcu7t5v0__fill_2
X_0822_ ctr\[9\] ctr\[8\] _0351_ _0352_ VDD VDD VSS VSS gf180mcu_fd_sc_mcu7t5v0__nand3_2
XFILLER_0_9_27 VDD VDD VSS VSS gf180mcu_fd_sc_mcu7t5v0__fill_2
XFILLER_0_3_203 VDD VDD VSS VSS gf180mcu_fd_sc_mcu7t5v0__fill_1
XFILLER_0_24_331 VDD VDD VSS VSS gf180mcu_fd_sc_mcu7t5v0__fill_2
XFILLER_0_24_364 VDD VDD VSS VSS gf180mcu_fd_sc_mcu7t5v0__fill_2
XANTENNA__0917__A3 _0355_ VDD VDD VSS VSS gf180mcu_fd_sc_mcu7t5v0__antenna
XFILLER_0_86_45 VDD VDD VSS VSS gf180mcu_fd_sc_mcu7t5v0__fill_2
XFILLER_0_86_78 VDD VDD VSS VSS gf180mcu_fd_sc_mcu7t5v0__fill_2
XFILLER_0_19_72 VDD VDD VSS VSS gf180mcu_fd_sc_mcu7t5v0__fillcap_16
XFILLER_0_19_61 VDD VDD VSS VSS gf180mcu_fd_sc_mcu7t5v0__fillcap_8
X_1305_ _0794_ _0017_ VDD VDD VSS VSS gf180mcu_fd_sc_mcu7t5v0__clkbuf_1
X_1236_ _0697_ _0746_ _0747_ VDD VDD VSS VSS gf180mcu_fd_sc_mcu7t5v0__nand2_1
X_1167_ net5 _0682_ VDD VDD VSS VSS gf180mcu_fd_sc_mcu7t5v0__inv_3
X_1098_ cal_lut\[65\] _0622_ VDD VDD VSS VSS gf180mcu_fd_sc_mcu7t5v0__clkinv_1
XFILLER_0_74_220 VDD VDD VSS VSS gf180mcu_fd_sc_mcu7t5v0__fill_1
XFILLER_0_30_312 VDD VDD VSS VSS gf180mcu_fd_sc_mcu7t5v0__fill_2
XFILLER_0_42_172 VDD VDD VSS VSS gf180mcu_fd_sc_mcu7t5v0__fill_2
XANTENNA__1030__A2 _0407_ VDD VDD VSS VSS gf180mcu_fd_sc_mcu7t5v0__antenna
XANTENNA_temp1.dac.parallel_cells\[2\].vdac_batch.einvp_batch\[3\].vref_I temp1.dac.parallel_cells\[0\].vdac_batch.vout_notouch_
+ VDD VDD VSS VSS gf180mcu_fd_sc_mcu7t5v0__antenna
XANTENNA_dec1._090__A1 dec1.i_bin\[3\] VDD VDD VSS VSS gf180mcu_fd_sc_mcu7t5v0__antenna
XTAP_TAPCELL_ROW_73_605 VDD VSS gf180mcu_fd_sc_mcu7t5v0__filltie
XFILLER_0_80_201 VDD VDD VSS VSS gf180mcu_fd_sc_mcu7t5v0__fill_2
XFILLER_0_25_117 VDD VDD VSS VSS gf180mcu_fd_sc_mcu7t5v0__fillcap_16
XFILLER_0_25_139 VDD VDD VSS VSS gf180mcu_fd_sc_mcu7t5v0__fill_1
XFILLER_0_65_286 VDD VDD VSS VSS gf180mcu_fd_sc_mcu7t5v0__fill_2
XFILLER_0_18_191 VDD VDD VSS VSS gf180mcu_fd_sc_mcu7t5v0__fill_2
XFILLER_0_40_109 VDD VDD VSS VSS gf180mcu_fd_sc_mcu7t5v0__fill_1
XFILLER_0_80_278 VDD VDD VSS VSS gf180mcu_fd_sc_mcu7t5v0__fill_2
XANTENNA__1021__A2 _0377_ VDD VDD VSS VSS gf180mcu_fd_sc_mcu7t5v0__antenna
XFILLER_0_21_356 VDD VDD VSS VSS gf180mcu_fd_sc_mcu7t5v0__fillcap_16
XFILLER_0_0_206 VDD VDD VSS VSS gf180mcu_fd_sc_mcu7t5v0__fillcap_32
XFILLER_0_56_37 VDD VDD VSS VSS gf180mcu_fd_sc_mcu7t5v0__fillcap_4
X_1021_ cal_lut\[58\] _0377_ _0379_ cal_lut\[64\] _0546_ VDD VDD VSS VSS gf180mcu_fd_sc_mcu7t5v0__aoi22_2
XANTENNA__1808__CLK net15 VDD VDD VSS VSS gf180mcu_fd_sc_mcu7t5v0__antenna
XFILLER_0_29_401 VDD VDD VSS VSS gf180mcu_fd_sc_mcu7t5v0__fillcap_16
XFILLER_0_88_378 VDD VDD VSS VSS gf180mcu_fd_sc_mcu7t5v0__fillcap_4
XFILLER_0_56_264 VDD VDD VSS VSS gf180mcu_fd_sc_mcu7t5v0__fill_2
XTAP_TAPCELL_ROW_12_270 VDD VSS gf180mcu_fd_sc_mcu7t5v0__filltie
X_1854_ _0206_ clknet_1_1__leaf_io_in[0] ctr\[7\] VDD VDD VSS VSS gf180mcu_fd_sc_mcu7t5v0__dffq_2
XFILLER_0_21_95 VDD VDD VSS VSS gf180mcu_fd_sc_mcu7t5v0__fillcap_32
X_1785_ _0137_ net12 cal_lut\[138\] VDD VDD VSS VSS gf180mcu_fd_sc_mcu7t5v0__dffq_1
XFILLER_0_97_33 VDD VDD VSS VSS gf180mcu_fd_sc_mcu7t5v0__fill_1
XANTENNA__1012__A2 _0512_ VDD VDD VSS VSS gf180mcu_fd_sc_mcu7t5v0__antenna
XTAP_TAPCELL_ROW_4_227 VDD VSS gf180mcu_fd_sc_mcu7t5v0__filltie
XANTENNA_dec1._072__A1 dec1.i_bin\[6\] VDD VDD VSS VSS gf180mcu_fd_sc_mcu7t5v0__antenna
X_1219_ _0728_ _0729_ _0731_ clknet_1_1__leaf_io_in[0] io_out[2] VDD VDD VSS VSS gf180mcu_fd_sc_mcu7t5v0__oai22_1
XFILLER_0_47_220 VDD VDD VSS VSS gf180mcu_fd_sc_mcu7t5v0__fill_2
XTAP_TAPCELL_ROW_35_395 VDD VSS gf180mcu_fd_sc_mcu7t5v0__filltie
XFILLER_0_47_286 VDD VDD VSS VSS gf180mcu_fd_sc_mcu7t5v0__fill_2
XFILLER_0_15_150 VDD VDD VSS VSS gf180mcu_fd_sc_mcu7t5v0__fill_2
XANTENNA__1490__A2 _0255_ VDD VDD VSS VSS gf180mcu_fd_sc_mcu7t5v0__antenna
XFILLER_0_42_28 VDD VDD VSS VSS gf180mcu_fd_sc_mcu7t5v0__fill_1
XFILLER_0_85_348 VDD VDD VSS VSS gf180mcu_fd_sc_mcu7t5v0__fill_2
XFILLER_0_53_212 VDD VDD VSS VSS gf180mcu_fd_sc_mcu7t5v0__fill_2
XANTENNA__1242__A2 _0709_ VDD VDD VSS VSS gf180mcu_fd_sc_mcu7t5v0__antenna
XFILLER_0_53_278 VDD VDD VSS VSS gf180mcu_fd_sc_mcu7t5v0__fill_2
X_1570_ _0531_ _0289_ _0171_ VDD VDD VSS VSS gf180mcu_fd_sc_mcu7t5v0__nor2_1
XFILLER_0_21_153 VDD VDD VSS VSS gf180mcu_fd_sc_mcu7t5v0__fill_2
XFILLER_0_21_142 VDD VDD VSS VSS gf180mcu_fd_sc_mcu7t5v0__fill_2
XFILLER_0_6_39 VDD VDD VSS VSS gf180mcu_fd_sc_mcu7t5v0__fill_1
XFILLER_0_67_69 VDD VDD VSS VSS gf180mcu_fd_sc_mcu7t5v0__fill_1
Xtemp1.dac.parallel_cells\[3\].vdac_batch.einvp_batch\[6\].pupd temp1.dac.parallel_cells\[3\].vdac_batch.en_pupd
+ temp1.dac.parallel_cells\[3\].vdac_batch.npu_pd temp1.dac.parallel_cells\[0\].vdac_batch.vout_notouch_
+ VDD VDD VSS VSS gf180mcu_fd_sc_mcu7t5v0__invz_2
XTAP_TAPCELL_ROW_1_208 VDD VSS gf180mcu_fd_sc_mcu7t5v0__filltie
XTAP_TAPCELL_ROW_92_711 VDD VSS gf180mcu_fd_sc_mcu7t5v0__filltie
XTAP_TAPCELL_ROW_49_476 VDD VSS gf180mcu_fd_sc_mcu7t5v0__filltie
Xtemp1.dac.parallel_cells\[2\].vdac_batch._4_ temp1.dac.i_data\[2\] temp1.dac.i_data\[5\]
+ temp1.dac.parallel_cells\[2\].vdac_batch._1_ VDD VDD VSS VSS gf180mcu_fd_sc_mcu7t5v0__xnor2_1
XANTENNA__1780__CLK net8 VDD VDD VSS VSS gf180mcu_fd_sc_mcu7t5v0__antenna
X_1004_ _0528_ _0436_ _0529_ _0530_ VDD VDD VSS VSS gf180mcu_fd_sc_mcu7t5v0__oai21_2
XFILLER_0_32_72 VDD VDD VSS VSS gf180mcu_fd_sc_mcu7t5v0__fill_2
XFILLER_0_84_381 VDD VDD VSS VSS gf180mcu_fd_sc_mcu7t5v0__fillcap_4
XFILLER_0_32_94 VDD VDD VSS VSS gf180mcu_fd_sc_mcu7t5v0__fillcap_8
X_1837_ _0189_ net10 cal_lut\[190\] VDD VDD VSS VSS gf180mcu_fd_sc_mcu7t5v0__dffq_1
XANTENNA__0992__A1 _0360_ VDD VDD VSS VSS gf180mcu_fd_sc_mcu7t5v0__antenna
XFILLER_0_12_153 VDD VDD VSS VSS gf180mcu_fd_sc_mcu7t5v0__fill_2
X_1768_ _0120_ net12 cal_lut\[121\] VDD VDD VSS VSS gf180mcu_fd_sc_mcu7t5v0__dffq_1
X_1699_ _0051_ net17 cal_lut\[52\] VDD VDD VSS VSS gf180mcu_fd_sc_mcu7t5v0__dffq_1
XFILLER_0_79_131 VDD VDD VSS VSS gf180mcu_fd_sc_mcu7t5v0__fillcap_4
XFILLER_0_67_304 VDD VDD VSS VSS gf180mcu_fd_sc_mcu7t5v0__fillcap_16
XANTENNA__1472__A2 _0240_ VDD VDD VSS VSS gf180mcu_fd_sc_mcu7t5v0__antenna
XFILLER_0_79_186 VDD VDD VSS VSS gf180mcu_fd_sc_mcu7t5v0__fillcap_4
XTAP_TAPCELL_ROW_23_332 VDD VSS gf180mcu_fd_sc_mcu7t5v0__filltie
XFILLER_0_35_212 VDD VDD VSS VSS gf180mcu_fd_sc_mcu7t5v0__fillcap_8
XFILLER_0_75_381 VDD VDD VSS VSS gf180mcu_fd_sc_mcu7t5v0__fillcap_32
XFILLER_0_90_373 VDD VDD VSS VSS gf180mcu_fd_sc_mcu7t5v0__fillcap_8
XFILLER_0_35_267 VDD VDD VSS VSS gf180mcu_fd_sc_mcu7t5v0__fill_1
XANTENNA__1653__CLK net11 VDD VDD VSS VSS gf180mcu_fd_sc_mcu7t5v0__antenna
XANTENNA__1160__A1 ctr\[4\] VDD VDD VSS VSS gf180mcu_fd_sc_mcu7t5v0__antenna
XTAP_TAPCELL_ROW_46_457 VDD VSS gf180mcu_fd_sc_mcu7t5v0__filltie
Xtemp1.dac.vdac_single._4_ net20 net21 temp1.dac.vdac_single._1_ VDD VDD VSS VSS gf180mcu_fd_sc_mcu7t5v0__xnor2_1
XFILLER_0_5_128 VDD VDD VSS VSS gf180mcu_fd_sc_mcu7t5v0__fillcap_8
XFILLER_0_81_340 VDD VDD VSS VSS gf180mcu_fd_sc_mcu7t5v0__fill_2
XANTENNA__0974__A1 _0360_ VDD VDD VSS VSS gf180mcu_fd_sc_mcu7t5v0__antenna
X_1622_ _0348_ _0327_ _0783_ _0202_ VDD VDD VSS VSS gf180mcu_fd_sc_mcu7t5v0__oai21_1
X_1553_ _0560_ _0289_ _0160_ VDD VDD VSS VSS gf180mcu_fd_sc_mcu7t5v0__nor2_1
X_1484_ cal_lut\[120\] _0240_ _0272_ VDD VDD VSS VSS gf180mcu_fd_sc_mcu7t5v0__or2_1
XANTENNA__1624__B _0783_ VDD VDD VSS VSS gf180mcu_fd_sc_mcu7t5v0__antenna
XFILLER_0_27_50 VDD VDD VSS VSS gf180mcu_fd_sc_mcu7t5v0__fill_2
XFILLER_0_27_72 VDD VDD VSS VSS gf180mcu_fd_sc_mcu7t5v0__fill_2
XANTENNA__1151__A1 _0346_ VDD VDD VSS VSS gf180mcu_fd_sc_mcu7t5v0__antenna
XANTENNA_temp1.dac.parallel_cells\[4\].vdac_batch.einvp_batch\[6\].vref_I temp1.dac.parallel_cells\[0\].vdac_batch.vout_notouch_
+ VDD VDD VSS VSS gf180mcu_fd_sc_mcu7t5v0__antenna
XANTENNA__1454__A2 _0240_ VDD VDD VSS VSS gf180mcu_fd_sc_mcu7t5v0__antenna
XFILLER_0_43_82 VDD VDD VSS VSS gf180mcu_fd_sc_mcu7t5v0__fill_1
XFILLER_0_17_212 VDD VDD VSS VSS gf180mcu_fd_sc_mcu7t5v0__fillcap_16
XFILLER_0_17_201 VDD VDD VSS VSS gf180mcu_fd_sc_mcu7t5v0__fill_1
XTAP_TAPCELL_ROW_20_313 VDD VSS gf180mcu_fd_sc_mcu7t5v0__filltie
XFILLER_0_17_245 VDD VDD VSS VSS gf180mcu_fd_sc_mcu7t5v0__fillcap_8
Xtemp1.dac.vdac_single.einvp_batch\[0\].pupd temp1.dac.vdac_single.en_pupd temp1.dac.vdac_single.npu_pd
+ temp1.dac.parallel_cells\[0\].vdac_batch.vout_notouch_ VDD VDD VSS VSS gf180mcu_fd_sc_mcu7t5v0__invz_2
XFILLER_0_94_2 VDD VDD VSS VSS gf180mcu_fd_sc_mcu7t5v0__fillcap_8
XFILLER_0_72_373 VDD VDD VSS VSS gf180mcu_fd_sc_mcu7t5v0__fillcap_8
XANTENNA__1676__CLK net11 VDD VDD VSS VSS gf180mcu_fd_sc_mcu7t5v0__antenna
XFILLER_0_4_172 VDD VDD VSS VSS gf180mcu_fd_sc_mcu7t5v0__fill_2
Xdec1._060_ dec1.i_bin\[0\] dec1._000_ VDD VDD VSS VSS gf180mcu_fd_sc_mcu7t5v0__clkinv_1
XFILLER_0_55_307 VDD VDD VSS VSS gf180mcu_fd_sc_mcu7t5v0__fill_2
XFILLER_0_48_381 VDD VDD VSS VSS gf180mcu_fd_sc_mcu7t5v0__fill_2
XFILLER_0_82_104 VDD VDD VSS VSS gf180mcu_fd_sc_mcu7t5v0__fill_1
XFILLER_0_23_204 VDD VDD VSS VSS gf180mcu_fd_sc_mcu7t5v0__fillcap_4
XFILLER_0_63_384 VDD VDD VSS VSS gf180mcu_fd_sc_mcu7t5v0__fillcap_32
XFILLER_0_80_69 VDD VDD VSS VSS gf180mcu_fd_sc_mcu7t5v0__fill_2
XANTENNA__1699__CLK net17 VDD VDD VSS VSS gf180mcu_fd_sc_mcu7t5v0__antenna
XFILLER_0_54_373 VDD VDD VSS VSS gf180mcu_fd_sc_mcu7t5v0__fill_2
X_0984_ cal_lut\[21\] _0510_ VDD VDD VSS VSS gf180mcu_fd_sc_mcu7t5v0__clkinv_1
XANTENNA__0947__A1 _0360_ VDD VDD VSS VSS gf180mcu_fd_sc_mcu7t5v0__antenna
XFILLER_0_1_142 VDD VDD VSS VSS gf180mcu_fd_sc_mcu7t5v0__fillcap_8
X_1605_ _0365_ clknet_1_0__leaf__0318_ _0782_ _0320_ VDD VDD VSS VSS gf180mcu_fd_sc_mcu7t5v0__oai21_1
XFILLER_0_1_153 VDD VDD VSS VSS gf180mcu_fd_sc_mcu7t5v0__fillcap_4
X_1536_ _0293_ _0150_ VDD VDD VSS VSS gf180mcu_fd_sc_mcu7t5v0__clkbuf_1
X_1467_ _0478_ _0790_ _0110_ VDD VDD VSS VSS gf180mcu_fd_sc_mcu7t5v0__nor2_1
X_1398_ cal_lut\[70\] _0802_ _0236_ VDD VDD VSS VSS gf180mcu_fd_sc_mcu7t5v0__or2_1
XTAP_TAPCELL_ROW_57_519 VDD VSS gf180mcu_fd_sc_mcu7t5v0__filltie
XANTENNA__0883__B1 _0403_ VDD VDD VSS VSS gf180mcu_fd_sc_mcu7t5v0__antenna
XFILLER_0_96_229 VDD VDD VSS VSS gf180mcu_fd_sc_mcu7t5v0__fillcap_4
XTAP_TAPCELL_ROW_65_563 VDD VSS gf180mcu_fd_sc_mcu7t5v0__filltie
XFILLER_0_89_292 VDD VDD VSS VSS gf180mcu_fd_sc_mcu7t5v0__fill_2
XANTENNA__1427__A2 _0791_ VDD VDD VSS VSS gf180mcu_fd_sc_mcu7t5v0__antenna
XFILLER_0_9_242 VDD VDD VSS VSS gf180mcu_fd_sc_mcu7t5v0__fill_1
XFILLER_0_9_220 VDD VDD VSS VSS gf180mcu_fd_sc_mcu7t5v0__fillcap_4
XFILLER_0_64_104 VDD VDD VSS VSS gf180mcu_fd_sc_mcu7t5v0__fill_1