*SPEF "ieee 1481-1999"
*DESIGN "wb_buttons_leds"
*DATE "11:11:11 Fri 11 11, 1111"
*VENDOR "OpenRCX"
*PROGRAM "Parallel Extraction"
*VERSION "1.0"
*DESIGN_FLOW "NAME_SCOPE LOCAL" "PIN_CAP NONE"
*DIVIDER /
*DELIMITER :
*BUS_DELIMITER []
*T_UNIT 1 NS
*C_UNIT 1 PF
*R_UNIT 1 OHM
*L_UNIT 1 HENRY

*NAME_MAP
*3 buttons[0]
*4 buttons[1]
*5 clk
*6 i_wb_addr[0]
*7 i_wb_addr[10]
*8 i_wb_addr[11]
*9 i_wb_addr[12]
*10 i_wb_addr[13]
*11 i_wb_addr[14]
*12 i_wb_addr[15]
*13 i_wb_addr[16]
*14 i_wb_addr[17]
*15 i_wb_addr[18]
*16 i_wb_addr[19]
*17 i_wb_addr[1]
*18 i_wb_addr[20]
*19 i_wb_addr[21]
*20 i_wb_addr[22]
*21 i_wb_addr[23]
*22 i_wb_addr[24]
*23 i_wb_addr[25]
*24 i_wb_addr[26]
*25 i_wb_addr[27]
*26 i_wb_addr[28]
*27 i_wb_addr[29]
*28 i_wb_addr[2]
*29 i_wb_addr[30]
*30 i_wb_addr[31]
*31 i_wb_addr[3]
*32 i_wb_addr[4]
*33 i_wb_addr[5]
*34 i_wb_addr[6]
*35 i_wb_addr[7]
*36 i_wb_addr[8]
*37 i_wb_addr[9]
*38 i_wb_cyc
*39 i_wb_data[0]
*40 i_wb_data[1]
*41 i_wb_stb
*42 i_wb_we
*43 leds[0]
*44 leds[1]
*45 o_wb_ack
*46 o_wb_data[0]
*47 net54
*48 net55
*49 net56
*50 net57
*51 net58
*52 net59
*53 net60
*54 net61
*55 net62
*56 net63
*57 o_wb_data[1]
*58 net64
*59 net65
*60 net66
*61 net67
*62 net68
*63 net69
*64 net70
*65 net71
*66 net72
*67 net73
*68 net46
*69 net74
*70 net75
*71 net47
*72 net48
*73 net49
*74 net50
*75 net51
*76 net52
*77 net53
*78 net76
*79 reset
*80 _000_
*81 _001_
*82 _002_
*83 _003_
*84 _004_
*85 _005_
*86 _006_
*87 _007_
*88 _008_
*89 _009_
*90 _010_
*91 _011_
*92 _012_
*93 _013_
*94 _014_
*95 _015_
*96 _016_
*97 _017_
*98 _018_
*99 _019_
*100 _020_
*101 _021_
*102 _022_
*103 _023_
*104 _024_
*105 _025_
*106 _026_
*107 _027_
*108 _028_
*109 _029_
*110 _030_
*111 _031_
*112 _032_
*113 _033_
*114 _034_
*115 _035_
*116 _036_
*117 _037_
*118 _038_
*119 _039_
*120 clknet_0_clk
*121 clknet_1_0__leaf_clk
*122 clknet_1_1__leaf_clk
*123 net1
*124 net10
*125 net11
*126 net12
*127 net13
*128 net14
*129 net15
*130 net16
*131 net17
*132 net18
*133 net19
*134 net2
*135 net20
*136 net21
*137 net22
*138 net23
*139 net24
*140 net25
*141 net26
*142 net27
*143 net28
*144 net29
*145 net3
*146 net30
*147 net31
*148 net32
*149 net33
*150 net34
*151 net35
*152 net36
*153 net37
*154 net38
*155 net39
*156 net4
*157 net40
*158 net41
*159 net42
*160 net43
*161 net44
*162 net45
*163 net5
*164 net6
*165 net7
*166 net8
*167 net9
*168 ANTENNA_clkbuf_0_clk_I
*169 ANTENNA_input10_I
*170 ANTENNA_input11_I
*171 ANTENNA_input12_I
*172 ANTENNA_input13_I
*173 ANTENNA_input14_I
*174 ANTENNA_input15_I
*175 ANTENNA_input16_I
*176 ANTENNA_input17_I
*177 ANTENNA_input18_I
*178 ANTENNA_input19_I
*179 ANTENNA_input1_I
*180 ANTENNA_input20_I
*181 ANTENNA_input21_I
*182 ANTENNA_input22_I
*183 ANTENNA_input23_I
*184 ANTENNA_input24_I
*185 ANTENNA_input25_I
*186 ANTENNA_input26_I
*187 ANTENNA_input27_I
*188 ANTENNA_input28_I
*189 ANTENNA_input29_I
*190 ANTENNA_input2_I
*191 ANTENNA_input30_I
*192 ANTENNA_input31_I
*193 ANTENNA_input32_I
*194 ANTENNA_input33_I
*195 ANTENNA_input34_I
*196 ANTENNA_input35_I
*197 ANTENNA_input36_I
*198 ANTENNA_input37_I
*199 ANTENNA_input38_I
*200 ANTENNA_input39_I
*201 ANTENNA_input3_I
*202 ANTENNA_input40_I
*203 ANTENNA_input4_I
*204 ANTENNA_input5_I
*205 ANTENNA_input6_I
*206 ANTENNA_input7_I
*207 ANTENNA_input8_I
*208 ANTENNA_input9_I
*209 FILLER_0_0_101
*210 FILLER_0_0_134
*211 FILLER_0_0_150
*212 FILLER_0_0_25
*213 FILLER_0_0_27
*214 FILLER_0_0_6
*215 FILLER_0_0_70
*216 FILLER_0_0_72
*217 FILLER_0_10_103
*218 FILLER_0_10_131
*219 FILLER_0_10_135
*220 FILLER_0_10_137
*221 FILLER_0_10_16
*222 FILLER_0_10_32
*223 FILLER_0_10_34
*224 FILLER_0_10_37
*225 FILLER_0_10_41
*226 FILLER_0_11_142
*227 FILLER_0_11_38
*228 FILLER_0_11_46
*229 FILLER_0_11_6
*230 FILLER_0_11_64
*231 FILLER_0_11_68
*232 FILLER_0_11_77
*233 FILLER_0_11_81
*234 FILLER_0_12_107
*235 FILLER_0_12_12
*236 FILLER_0_12_123
*237 FILLER_0_12_28
*238 FILLER_0_12_32
*239 FILLER_0_12_34
*240 FILLER_0_12_37
*241 FILLER_0_12_68
*242 FILLER_0_13_114
*243 FILLER_0_13_130
*244 FILLER_0_13_138
*245 FILLER_0_13_142
*246 FILLER_0_13_150
*247 FILLER_0_13_2
*248 FILLER_0_13_38
*249 FILLER_0_13_46
*250 FILLER_0_13_48
*251 FILLER_0_13_53
*252 FILLER_0_13_6
*253 FILLER_0_13_69
*254 FILLER_0_13_72
*255 FILLER_0_13_80
*256 FILLER_0_13_84
*257 FILLER_0_14_101
*258 FILLER_0_14_107
*259 FILLER_0_14_139
*260 FILLER_0_14_147
*261 FILLER_0_14_22
*262 FILLER_0_14_30
*263 FILLER_0_14_34
*264 FILLER_0_14_37
*265 FILLER_0_14_6
*266 FILLER_0_15_109
*267 FILLER_0_15_125
*268 FILLER_0_15_133
*269 FILLER_0_15_137
*270 FILLER_0_15_139
*271 FILLER_0_15_142
*272 FILLER_0_15_146
*273 FILLER_0_15_6
*274 FILLER_0_15_72
*275 FILLER_0_15_77
*276 FILLER_0_16_101
*277 FILLER_0_16_104
*278 FILLER_0_16_108
*279 FILLER_0_16_113
*280 FILLER_0_16_119
*281 FILLER_0_16_125
*282 FILLER_0_16_133
*283 FILLER_0_16_135
*284 FILLER_0_16_138
*285 FILLER_0_16_14
*286 FILLER_0_16_146
*287 FILLER_0_16_30
*288 FILLER_0_16_36
*289 FILLER_0_16_40
*290 FILLER_0_16_42
*291 FILLER_0_16_47
*292 FILLER_0_16_53
*293 FILLER_0_16_59
*294 FILLER_0_16_63
*295 FILLER_0_16_80
*296 FILLER_0_16_84
*297 FILLER_0_16_89
*298 FILLER_0_16_95
*299 FILLER_0_16_99
*300 FILLER_0_1_109
*301 FILLER_0_1_113
*302 FILLER_0_1_117
*303 FILLER_0_1_121
*304 FILLER_0_1_133
*305 FILLER_0_1_142
*306 FILLER_0_1_144
*307 FILLER_0_1_151
*308 FILLER_0_1_24
*309 FILLER_0_2_101
*310 FILLER_0_2_107
*311 FILLER_0_2_115
*312 FILLER_0_2_119
*313 FILLER_0_2_122
*314 FILLER_0_2_128
*315 FILLER_0_2_134
*316 FILLER_0_2_138
*317 FILLER_0_2_16
*318 FILLER_0_2_20
*319 FILLER_0_2_24
*320 FILLER_0_2_29
*321 FILLER_0_2_37
*322 FILLER_0_2_39
*323 FILLER_0_2_44
*324 FILLER_0_2_97
*325 FILLER_0_3_12
*326 FILLER_0_3_128
*327 FILLER_0_3_136
*328 FILLER_0_3_142
*329 FILLER_0_3_146
*330 FILLER_0_3_16
*331 FILLER_0_3_20
*332 FILLER_0_3_24
*333 FILLER_0_3_28
*334 FILLER_0_3_30
*335 FILLER_0_3_72
*336 FILLER_0_3_76
*337 FILLER_0_3_79
*338 FILLER_0_3_8
*339 FILLER_0_3_85
*340 FILLER_0_4_103
*341 FILLER_0_4_107
*342 FILLER_0_4_12
*343 FILLER_0_4_139
*344 FILLER_0_4_147
*345 FILLER_0_4_16
*346 FILLER_0_4_20
*347 FILLER_0_4_28
*348 FILLER_0_4_32
*349 FILLER_0_4_34
*350 FILLER_0_4_37
*351 FILLER_0_4_45
*352 FILLER_0_4_8
*353 FILLER_0_4_83
*354 FILLER_0_4_99
*355 FILLER_0_5_12
*356 FILLER_0_5_129
*357 FILLER_0_5_137
*358 FILLER_0_5_139
*359 FILLER_0_5_142
*360 FILLER_0_5_148
*361 FILLER_0_5_16
*362 FILLER_0_5_18
*363 FILLER_0_5_69
*364 FILLER_0_5_8
*365 FILLER_0_6_101
*366 FILLER_0_6_118
*367 FILLER_0_6_134
*368 FILLER_0_6_138
*369 FILLER_0_6_14
*370 FILLER_0_6_18
*371 FILLER_0_6_22
*372 FILLER_0_6_30
*373 FILLER_0_6_34
*374 FILLER_0_6_37
*375 FILLER_0_6_53
*376 FILLER_0_6_61
*377 FILLER_0_6_63
*378 FILLER_0_7_12
*379 FILLER_0_7_121
*380 FILLER_0_7_137
*381 FILLER_0_7_139
*382 FILLER_0_7_142
*383 FILLER_0_7_20
*384 FILLER_0_7_24
*385 FILLER_0_7_62
*386 FILLER_0_7_8
*387 FILLER_0_8_12
*388 FILLER_0_8_141
*389 FILLER_0_8_143
*390 FILLER_0_8_28
*391 FILLER_0_8_32
*392 FILLER_0_8_34
*393 FILLER_0_8_37
*394 FILLER_0_8_53
*395 FILLER_0_8_8
*396 FILLER_0_9_12
*397 FILLER_0_9_131
*398 FILLER_0_9_139
*399 FILLER_0_9_142
*400 FILLER_0_9_28
*401 FILLER_0_9_32
*402 FILLER_0_9_63
*403 FILLER_0_9_72
*404 FILLER_0_9_74
*405 FILLER_0_9_8
*406 PHY_EDGE_ROW_0_Left_17
*407 PHY_EDGE_ROW_0_Right_0
*408 PHY_EDGE_ROW_10_Left_27
*409 PHY_EDGE_ROW_10_Right_10
*410 PHY_EDGE_ROW_11_Left_28
*411 PHY_EDGE_ROW_11_Right_11
*412 PHY_EDGE_ROW_12_Left_29
*413 PHY_EDGE_ROW_12_Right_12
*414 PHY_EDGE_ROW_13_Left_30
*415 PHY_EDGE_ROW_13_Right_13
*416 PHY_EDGE_ROW_14_Left_31
*417 PHY_EDGE_ROW_14_Right_14
*418 PHY_EDGE_ROW_15_Left_32
*419 PHY_EDGE_ROW_15_Right_15
*420 PHY_EDGE_ROW_16_Left_33
*421 PHY_EDGE_ROW_16_Right_16
*422 PHY_EDGE_ROW_1_Left_18
*423 PHY_EDGE_ROW_1_Right_1
*424 PHY_EDGE_ROW_2_Left_19
*425 PHY_EDGE_ROW_2_Right_2
*426 PHY_EDGE_ROW_3_Left_20
*427 PHY_EDGE_ROW_3_Right_3
*428 PHY_EDGE_ROW_4_Left_21
*429 PHY_EDGE_ROW_4_Right_4
*430 PHY_EDGE_ROW_5_Left_22
*431 PHY_EDGE_ROW_5_Right_5
*432 PHY_EDGE_ROW_6_Left_23
*433 PHY_EDGE_ROW_6_Right_6
*434 PHY_EDGE_ROW_7_Left_24
*435 PHY_EDGE_ROW_7_Right_7
*436 PHY_EDGE_ROW_8_Left_25
*437 PHY_EDGE_ROW_8_Right_8
*438 PHY_EDGE_ROW_9_Left_26
*439 PHY_EDGE_ROW_9_Right_9
*440 TAP_TAPCELL_ROW_0_34
*441 TAP_TAPCELL_ROW_0_35
*442 TAP_TAPCELL_ROW_0_36
*443 TAP_TAPCELL_ROW_0_37
*444 TAP_TAPCELL_ROW_10_56
*445 TAP_TAPCELL_ROW_10_57
*446 TAP_TAPCELL_ROW_11_58
*447 TAP_TAPCELL_ROW_11_59
*448 TAP_TAPCELL_ROW_12_60
*449 TAP_TAPCELL_ROW_12_61
*450 TAP_TAPCELL_ROW_13_62
*451 TAP_TAPCELL_ROW_13_63
*452 TAP_TAPCELL_ROW_14_64
*453 TAP_TAPCELL_ROW_14_65
*454 TAP_TAPCELL_ROW_15_66
*455 TAP_TAPCELL_ROW_15_67
*456 TAP_TAPCELL_ROW_16_68
*457 TAP_TAPCELL_ROW_16_69
*458 TAP_TAPCELL_ROW_16_70
*459 TAP_TAPCELL_ROW_16_71
*460 TAP_TAPCELL_ROW_1_38
*461 TAP_TAPCELL_ROW_1_39
*462 TAP_TAPCELL_ROW_2_40
*463 TAP_TAPCELL_ROW_2_41
*464 TAP_TAPCELL_ROW_3_42
*465 TAP_TAPCELL_ROW_3_43
*466 TAP_TAPCELL_ROW_4_44
*467 TAP_TAPCELL_ROW_4_45
*468 TAP_TAPCELL_ROW_5_46
*469 TAP_TAPCELL_ROW_5_47
*470 TAP_TAPCELL_ROW_6_48
*471 TAP_TAPCELL_ROW_6_49
*472 TAP_TAPCELL_ROW_7_50
*473 TAP_TAPCELL_ROW_7_51
*474 TAP_TAPCELL_ROW_8_52
*475 TAP_TAPCELL_ROW_8_53
*476 TAP_TAPCELL_ROW_9_54
*477 TAP_TAPCELL_ROW_9_55
*478 _040_
*479 _041_
*480 _042_
*481 _043_
*482 _044_
*483 _045_
*484 _046_
*485 _047_
*486 _048_
*487 _049_
*488 _050_
*489 _051_
*490 _052_
*491 _053_
*492 _054_
*493 _055_
*494 _056_
*495 _057_
*496 _058_
*497 _059_
*498 _060_
*499 _061_
*500 _062_
*501 _063_
*502 _064_
*503 _065_
*504 _066_
*505 _067_
*506 _068_
*507 _069_
*508 _070_
*509 _071_
*510 _072_
*511 _073_
*512 _074_
*513 _075_
*514 _076_
*515 _077_
*516 _078_
*517 _079_
*518 _080_
*519 _081_
*520 _082_
*521 _083_
*522 _084_
*523 clkbuf_0_clk
*524 clkbuf_1_0__f_clk
*525 clkbuf_1_1__f_clk
*526 input1
*527 input10
*528 input11
*529 input12
*530 input13
*531 input14
*532 input15
*533 input16
*534 input17
*535 input18
*536 input19
*537 input2
*538 input20
*539 input21
*540 input22
*541 input23
*542 input24
*543 input25
*544 input26
*545 input27
*546 input28
*547 input29
*548 input3
*549 input30
*550 input31
*551 input32
*552 input33
*553 input34
*554 input35
*555 input36
*556 input37
*557 input38
*558 input39
*559 input4
*560 input40
*561 input5
*562 input6
*563 input7
*564 input8
*565 input9
*566 output41
*567 output42
*568 output43
*569 output44
*570 output45
*571 wb_buttons_leds_46
*572 wb_buttons_leds_47
*573 wb_buttons_leds_48
*574 wb_buttons_leds_49
*575 wb_buttons_leds_50
*576 wb_buttons_leds_51
*577 wb_buttons_leds_52
*578 wb_buttons_leds_53
*579 wb_buttons_leds_54
*580 wb_buttons_leds_55
*581 wb_buttons_leds_56
*582 wb_buttons_leds_57
*583 wb_buttons_leds_58
*584 wb_buttons_leds_59
*585 wb_buttons_leds_60
*586 wb_buttons_leds_61
*587 wb_buttons_leds_62
*588 wb_buttons_leds_63
*589 wb_buttons_leds_64
*590 wb_buttons_leds_65
*591 wb_buttons_leds_66
*592 wb_buttons_leds_67
*593 wb_buttons_leds_68
*594 wb_buttons_leds_69
*595 wb_buttons_leds_70
*596 wb_buttons_leds_71
*597 wb_buttons_leds_72
*598 wb_buttons_leds_73
*599 wb_buttons_leds_74
*600 wb_buttons_leds_75
*601 wb_buttons_leds_76

*PORTS
buttons[0] I
buttons[1] I
clk I
i_wb_addr[0] I
i_wb_addr[10] I
i_wb_addr[11] I
i_wb_addr[12] I
i_wb_addr[13] I
i_wb_addr[14] I
i_wb_addr[15] I
i_wb_addr[16] I
i_wb_addr[17] I
i_wb_addr[18] I
i_wb_addr[19] I
i_wb_addr[1] I
i_wb_addr[20] I
i_wb_addr[21] I
i_wb_addr[22] I
i_wb_addr[23] I
i_wb_addr[24] I
i_wb_addr[25] I
i_wb_addr[26] I
i_wb_addr[27] I
i_wb_addr[28] I
i_wb_addr[29] I
i_wb_addr[2] I
i_wb_addr[30] I
i_wb_addr[31] I
i_wb_addr[3] I
i_wb_addr[4] I
i_wb_addr[5] I
i_wb_addr[6] I
i_wb_addr[7] I
i_wb_addr[8] I
i_wb_addr[9] I
i_wb_cyc I
i_wb_data[0] I
i_wb_data[1] I
i_wb_stb I
i_wb_we I
leds[0] O
leds[1] O
o_wb_ack O
o_wb_data[0] O
o_wb_data[10] O
o_wb_data[11] O
o_wb_data[12] O
o_wb_data[13] O
o_wb_data[14] O
o_wb_data[15] O
o_wb_data[16] O
o_wb_data[17] O
o_wb_data[18] O
o_wb_data[19] O
o_wb_data[1] O
o_wb_data[20] O
o_wb_data[21] O
o_wb_data[22] O
o_wb_data[23] O
o_wb_data[24] O
o_wb_data[25] O
o_wb_data[26] O
o_wb_data[27] O
o_wb_data[28] O
o_wb_data[29] O
o_wb_data[2] O
o_wb_data[30] O
o_wb_data[31] O
o_wb_data[3] O
o_wb_data[4] O
o_wb_data[5] O
o_wb_data[6] O
o_wb_data[7] O
o_wb_data[8] O
o_wb_data[9] O
o_wb_stall O
reset I

*D_NET *3 0.00129103
*CONN
*P buttons[0] I
*I *526:I I *D gf180mcu_fd_sc_mcu7t5v0__clkbuf_1
*I *179:I I *D gf180mcu_fd_sc_mcu7t5v0__antenna
*CAP
1 buttons[0] 0.000407272
2 *526:I 3.95504e-05
3 *179:I 0.000101453
4 *3:9 0.000548275
5 *179:I *503:A1 8.05869e-05
6 *526:I *503:A1 2.40587e-06
7 *3:9 o_wb_ack 4.55292e-05
8 *3:9 o_wb_data[1] 4.26716e-05
9 *3:9 *503:A1 2.32821e-05
*RES
1 buttons[0] *3:9 7.335 
2 *3:9 *179:I 5.49 
3 *3:9 *526:I 4.77 
*END

*D_NET *4 0.00103758
*CONN
*P buttons[1] I
*I *537:I I *D gf180mcu_fd_sc_mcu7t5v0__clkbuf_1
*I *190:I I *D gf180mcu_fd_sc_mcu7t5v0__antenna
*CAP
1 buttons[1] 0.000280042
2 *537:I 3.39463e-05
3 *190:I 0.000133346
4 *4:9 0.000447335
5 *190:I *200:I 0
6 *190:I *508:A1 0
7 *190:I *79:9 3.0177e-06
8 *190:I *155:10 2.84815e-05
9 *537:I *503:A1 5.30888e-06
10 *537:I *508:A1 1.07374e-05
11 *4:9 *42:5 2.62485e-05
12 *4:9 *79:9 6.91125e-05
*RES
1 buttons[1] *4:9 2.205 
2 *4:9 *190:I 9.99 
3 *4:9 *537:I 9.27 
*END

*D_NET *5 0.00627579
*CONN
*P clk I
*I *168:I I *D gf180mcu_fd_sc_mcu7t5v0__antenna
*I *523:I I *D gf180mcu_fd_sc_mcu7t5v0__clkbuf_16
*CAP
1 clk 0.00202264
2 *168:I 0
3 *523:I 0.000378815
4 *5:9 0.00240145
5 *523:I *504:A2 2.32821e-05
6 *523:I *507:B 0
7 *523:I *511:A2 0
8 *523:I *122:19 0
9 *5:9 o_wb_data[8] 5.71292e-05
10 *5:9 *479:I 0.000938394
11 *5:9 *504:A1 5.96096e-05
12 *5:9 *504:A2 5.30888e-06
13 *5:9 *514:A1 0.000115612
14 *5:9 *519:D 4.18699e-05
15 *5:9 *519:CLK 7.80776e-06
16 *5:9 *520:CLK 0
17 *5:9 *566:I 2.95601e-05
18 *5:9 *39:7 5.71292e-05
19 *5:9 *122:19 0
20 *5:9 *158:21 0.000137182
*RES
1 clk *5:9 22.275 
2 *5:9 *523:I 6.93 
3 *5:9 *168:I 4.5 
*END

*D_NET *6 0.00616343
*CONN
*P i_wb_addr[0] I
*I *201:I I *D gf180mcu_fd_sc_mcu7t5v0__antenna
*I *548:I I *D gf180mcu_fd_sc_mcu7t5v0__buf_1
*CAP
1 i_wb_addr[0] 0.000915629
2 *201:I 0.000356042
3 *548:I 0
4 *6:13 0.00127167
5 *201:I o_wb_data[29] 0.000139375
6 *201:I *173:I 0.000713835
7 *201:I *181:I 6.41295e-05
8 *201:I *189:I 0.000113311
9 *201:I *203:I 0.000287877
10 *201:I *484:A4 6.34901e-05
11 *201:I *145:16 0.000307423
12 *6:13 o_wb_data[29] 0.000298053
13 *6:13 o_wb_data[31] 0.000290931
14 *6:13 *189:I 6.71516e-05
15 *6:13 *484:A4 0.000114135
16 *6:13 *7:15 0.00116038
*RES
1 i_wb_addr[0] *6:13 18.765 
2 *6:13 *548:I 4.5 
3 *6:13 *201:I 17.91 
*END

*D_NET *7 0.00462622
*CONN
*P i_wb_addr[10] I
*I *203:I I *D gf180mcu_fd_sc_mcu7t5v0__antenna
*I *559:I I *D gf180mcu_fd_sc_mcu7t5v0__clkbuf_1
*CAP
1 i_wb_addr[10] 0.000872906
2 *203:I 0.00021355
3 *559:I 0
4 *7:15 0.00108646
5 *203:I *173:I 3.01013e-05
6 *203:I *189:I 0.000119214
7 *7:15 o_wb_data[27] 1.60414e-05
8 *7:15 o_wb_data[29] 0.000273771
9 *7:15 *173:I 0.00035741
10 *7:15 *189:I 5.34388e-05
11 *7:15 *32:11 0.000144667
12 *7:15 *128:24 1.0415e-05
13 *201:I *203:I 0.000287877
14 *6:13 *7:15 0.00116038
*RES
1 i_wb_addr[10] *7:15 18.855 
2 *7:15 *559:I 4.5 
3 *7:15 *203:I 6.66 
*END

*D_NET *8 0.00310052
*CONN
*P i_wb_addr[11] I
*I *204:I I *D gf180mcu_fd_sc_mcu7t5v0__antenna
*I *561:I I *D gf180mcu_fd_sc_mcu7t5v0__clkbuf_1
*CAP
1 i_wb_addr[11] 0.00100149
2 *204:I 0.000197749
3 *561:I 0
4 *8:9 0.00119924
5 *204:I *208:I 2.59366e-05
6 *8:9 *169:I 0.000132459
7 *8:9 *208:I 9.90362e-06
8 *8:9 *487:A2 5.78854e-06
9 *8:9 *9:13 0.000527948
*RES
1 i_wb_addr[11] *8:9 8.325 
2 *8:9 *561:I 4.5 
3 *8:9 *204:I 5.94 
*END

*D_NET *9 0.00429268
*CONN
*P i_wb_addr[12] I
*I *205:I I *D gf180mcu_fd_sc_mcu7t5v0__antenna
*I *562:I I *D gf180mcu_fd_sc_mcu7t5v0__clkbuf_1
*CAP
1 i_wb_addr[12] 0.000641248
2 *205:I 0.000133008
3 *562:I 4.03782e-05
4 *9:13 0.000814634
5 *205:I o_wb_data[13] 8.16641e-05
6 *205:I *208:I 1.85805e-05
7 *205:I *486:A4 0.000193098
8 *562:I *169:I 3.45237e-05
9 *562:I *483:A3 0.000244819
10 *9:13 o_wb_data[13] 5.00297e-05
11 *9:13 *169:I 9.83873e-05
12 *9:13 *483:A3 0.000409038
13 *9:13 *13:9 0.00100532
14 *8:9 *9:13 0.000527948
*RES
1 i_wb_addr[12] *9:13 12.195 
2 *9:13 *562:I 9.63 
3 *9:13 *205:I 10.35 
*END

*D_NET *10 0.00374697
*CONN
*P i_wb_addr[13] I
*I *563:I I *D gf180mcu_fd_sc_mcu7t5v0__clkbuf_1
*I *206:I I *D gf180mcu_fd_sc_mcu7t5v0__antenna
*CAP
1 i_wb_addr[13] 0.000380916
2 *563:I 0.000242408
3 *206:I 0.000392443
4 *10:5 0.00101577
5 *206:I *195:I 0.000163248
6 *206:I *207:I 1.56273e-05
7 *206:I *485:A1 0.000138286
8 *206:I *485:A2 0.000955358
9 *206:I *37:9 9.81583e-05
10 *563:I o_wb_data[28] 6.54322e-05
11 *563:I *207:I 1.0415e-05
12 *563:I *482:A4 1.27836e-05
13 *563:I *21:13 0
14 *10:5 o_wb_data[28] 0.000109419
15 *10:5 *37:9 0.000146704
*RES
1 i_wb_addr[13] *10:5 3.825 
2 *10:5 *206:I 8.91 
3 *10:5 *563:I 6.12 
*END

*D_NET *11 0.00560509
*CONN
*P i_wb_addr[14] I
*I *564:I I *D gf180mcu_fd_sc_mcu7t5v0__clkbuf_1
*I *207:I I *D gf180mcu_fd_sc_mcu7t5v0__antenna
*CAP
1 i_wb_addr[14] 0.000808618
2 *564:I 3.47881e-05
3 *207:I 0.000527065
4 *11:9 0.00137047
5 *207:I *482:A4 0.000102735
6 *207:I *485:A2 3.72196e-05
7 *207:I *513:A4 3.36179e-05
8 *207:I *117:14 0.000106193
9 *564:I o_wb_data[28] 0.000125183
10 *564:I *482:A3 0.000126485
11 *11:9 o_wb_data[28] 1.18477e-05
12 *11:9 *482:A1 0.00139064
13 *11:9 *482:A3 0.000631777
14 *11:9 *482:A4 1.68605e-05
15 *11:9 *505:A2 3.31858e-06
16 *11:9 *505:A3 7.55765e-06
17 *11:9 *505:A4 5.79792e-06
18 *11:9 *33:9 0.000117515
19 *11:9 *36:7 0.000121359
20 *206:I *207:I 1.56273e-05
21 *563:I *207:I 1.0415e-05
*RES
1 i_wb_addr[14] *11:9 13.455 
2 *11:9 *207:I 12.69 
3 *11:9 *564:I 9.81 
*END

*D_NET *12 0.00411329
*CONN
*P i_wb_addr[15] I
*I *565:I I *D gf180mcu_fd_sc_mcu7t5v0__clkbuf_1
*I *208:I I *D gf180mcu_fd_sc_mcu7t5v0__antenna
*CAP
1 i_wb_addr[15] 0.000713546
2 *565:I 0
3 *208:I 0.000381714
4 *12:9 0.00109526
5 *208:I o_wb_data[13] 0.000478005
6 *208:I *482:A3 0.000205026
7 *208:I *483:A3 7.67563e-05
8 *208:I *486:A4 3.23278e-05
9 *208:I *487:A2 0.000283695
10 *208:I *13:9 8.46913e-05
11 *12:9 *482:A3 7.76232e-05
12 *12:9 *13:9 0.000519627
13 *12:9 *20:9 0.000110594
14 *204:I *208:I 2.59366e-05
15 *205:I *208:I 1.85805e-05
16 *8:9 *208:I 9.90362e-06
*RES
1 i_wb_addr[15] *12:9 6.345 
2 *12:9 *208:I 8.64 
3 *12:9 *565:I 4.5 
*END

*D_NET *13 0.0046292
*CONN
*P i_wb_addr[16] I
*I *169:I I *D gf180mcu_fd_sc_mcu7t5v0__antenna
*I *527:I I *D gf180mcu_fd_sc_mcu7t5v0__clkbuf_1
*CAP
1 i_wb_addr[16] 0.000523202
2 *169:I 0.000282858
3 *527:I 0
4 *13:9 0.00080606
5 *169:I *176:I 2.16688e-05
6 *169:I *483:A3 0.000333437
7 *169:I *486:A4 6.06389e-05
8 *169:I *487:A2 0.000635879
9 *13:9 *483:A3 9.04462e-05
10 *208:I *13:9 8.46913e-05
11 *562:I *169:I 3.45237e-05
12 *8:9 *169:I 0.000132459
13 *9:13 *169:I 9.83873e-05
14 *9:13 *13:9 0.00100532
15 *12:9 *13:9 0.000519627
*RES
1 i_wb_addr[16] *13:9 6.705 
2 *13:9 *527:I 4.5 
3 *13:9 *169:I 17.01 
*END

*D_NET *14 0.00225424
*CONN
*P i_wb_addr[17] I
*I *528:I I *D gf180mcu_fd_sc_mcu7t5v0__clkbuf_1
*I *170:I I *D gf180mcu_fd_sc_mcu7t5v0__antenna
*CAP
1 i_wb_addr[17] 0.000548773
2 *528:I 0.000100749
3 *170:I 0
4 *14:5 0.000649522
5 *528:I *174:I 4.97904e-05
6 *528:I *486:A2 0.000196982
7 *14:5 *174:I 0.000153299
8 *14:5 *486:A2 0.000100995
9 *14:5 *533:I 9.04462e-05
10 *14:5 *18:13 0.000250745
11 *14:5 *20:9 0.000112943
*RES
1 i_wb_addr[17] *14:5 5.625 
2 *14:5 *170:I 4.5 
3 *14:5 *528:I 5.58 
*END

*D_NET *15 0.00271733
*CONN
*P i_wb_addr[18] I
*I *171:I I *D gf180mcu_fd_sc_mcu7t5v0__antenna
*I *529:I I *D gf180mcu_fd_sc_mcu7t5v0__clkbuf_1
*CAP
1 i_wb_addr[18] 0.00062916
2 *171:I 0.000103586
3 *529:I 0
4 *15:9 0.000732746
5 *171:I *175:I 0.000100101
6 *171:I *487:A4 0.00015614
7 *15:9 *172:I 0
8 *15:9 *175:I 2.14748e-05
9 *15:9 *177:I 0
10 *15:9 *487:A3 0
11 *15:9 *487:A4 4.83522e-05
12 *15:9 *16:11 8.62694e-05
13 *15:9 *19:9 0.000839504
*RES
1 i_wb_addr[18] *15:9 6.705 
2 *15:9 *529:I 4.5 
3 *15:9 *171:I 5.67 
*END

*D_NET *16 0.00304585
*CONN
*P i_wb_addr[19] I
*I *172:I I *D gf180mcu_fd_sc_mcu7t5v0__antenna
*I *530:I I *D gf180mcu_fd_sc_mcu7t5v0__clkbuf_1
*CAP
1 i_wb_addr[19] 0.000745795
2 *172:I 0.000191444
3 *530:I 0
4 *16:11 0.000937239
5 *172:I *487:A3 9.09976e-05
6 *172:I *487:A4 0.00014742
7 *16:11 *482:A3 0.000343784
8 *16:11 *482:A4 0
9 *16:11 *486:A3 1.39839e-05
10 *16:11 *487:A3 0
11 *16:11 *21:13 0.000488914
12 *15:9 *172:I 0
13 *15:9 *16:11 8.62694e-05
*RES
1 i_wb_addr[19] *16:11 15.615 
2 *16:11 *530:I 4.5 
3 *16:11 *172:I 6.12 
*END

*D_NET *17 0.00516752
*CONN
*P i_wb_addr[1] I
*I *173:I I *D gf180mcu_fd_sc_mcu7t5v0__antenna
*I *531:I I *D gf180mcu_fd_sc_mcu7t5v0__buf_1
*CAP
1 i_wb_addr[1] 0.000395367
2 *173:I 0.000418649
3 *531:I 0
4 *17:9 0.000814016
5 *173:I o_wb_data[12] 0.000658401
6 *173:I *181:I 0.000496785
7 *173:I *187:I 1.7611e-05
8 *173:I *192:I 0
9 *173:I *484:A4 5.22596e-06
10 *173:I *128:24 3.99116e-05
11 *17:9 o_wb_data[12] 0.000922927
12 *17:9 o_wb_data[27] 5.36424e-05
13 *17:9 *28:9 0.000157007
14 *17:9 *34:7 5.44161e-05
15 *17:9 *128:24 3.22122e-05
16 *201:I *173:I 0.000713835
17 *203:I *173:I 3.01013e-05
18 *7:15 *173:I 0.00035741
*RES
1 i_wb_addr[1] *17:9 5.085 
2 *17:9 *531:I 4.5 
3 *17:9 *173:I 9.9 
*END

*D_NET *18 0.00376386
*CONN
*P i_wb_addr[20] I
*I *174:I I *D gf180mcu_fd_sc_mcu7t5v0__antenna
*I *532:I I *D gf180mcu_fd_sc_mcu7t5v0__clkbuf_1
*CAP
1 i_wb_addr[20] 0.000501295
2 *174:I 0.000264639
3 *532:I 0.000124922
4 *18:13 0.000890856
5 *174:I *486:A1 0.000557063
6 *174:I *486:A2 4.57313e-05
7 *174:I *533:I 3.01487e-05
8 *532:I *482:A3 0.000217317
9 *532:I *533:I 9.39061e-05
10 *18:13 *175:I 1.17853e-05
11 *18:13 *486:A1 9.85004e-05
12 *18:13 *533:I 9.04462e-05
13 *18:13 *19:9 0.000383413
14 *528:I *174:I 4.97904e-05
15 *14:5 *174:I 0.000153299
16 *14:5 *18:13 0.000250745
*RES
1 i_wb_addr[20] *18:13 5.625 
2 *18:13 *532:I 14.85 
3 *18:13 *174:I 7.47 
*END

*D_NET *19 0.00464616
*CONN
*P i_wb_addr[21] I
*I *175:I I *D gf180mcu_fd_sc_mcu7t5v0__antenna
*I *533:I I *D gf180mcu_fd_sc_mcu7t5v0__clkbuf_1
*CAP
1 i_wb_addr[21] 0.000414601
2 *175:I 0.000239273
3 *533:I 0.000203209
4 *19:9 0.000857083
5 *175:I *486:A1 0.00102641
6 *175:I *487:A1 0.000165945
7 *175:I *487:A4 1.75631e-05
8 *533:I *482:A3 6.08466e-05
9 *171:I *175:I 0.000100101
10 *174:I *533:I 3.01487e-05
11 *532:I *533:I 9.39061e-05
12 *14:5 *533:I 9.04462e-05
13 *15:9 *175:I 2.14748e-05
14 *15:9 *19:9 0.000839504
15 *18:13 *175:I 1.17853e-05
16 *18:13 *533:I 9.04462e-05
17 *18:13 *19:9 0.000383413
*RES
1 i_wb_addr[21] *19:9 5.625 
2 *19:9 *533:I 14.76 
3 *19:9 *175:I 8.01 
*END

*D_NET *20 0.00353706
*CONN
*P i_wb_addr[22] I
*I *176:I I *D gf180mcu_fd_sc_mcu7t5v0__antenna
*I *534:I I *D gf180mcu_fd_sc_mcu7t5v0__clkbuf_1
*CAP
1 i_wb_addr[22] 0.000537809
2 *176:I 0.00040177
3 *534:I 0.000259417
4 *20:9 0.001199
5 *176:I *486:A2 0.000688654
6 *176:I *486:A4 7.54228e-06
7 *534:I *482:A3 0.000149577
8 *534:I *486:A4 3.98088e-05
9 *20:9 *486:A2 7.55765e-06
10 *20:9 *486:A4 7.191e-07
11 *169:I *176:I 2.16688e-05
12 *12:9 *20:9 0.000110594
13 *14:5 *20:9 0.000112943
*RES
1 i_wb_addr[22] *20:9 4.725 
2 *20:9 *534:I 15.3 
3 *20:9 *176:I 7.92 
*END

*D_NET *21 0.00324789
*CONN
*P i_wb_addr[23] I
*I *177:I I *D gf180mcu_fd_sc_mcu7t5v0__antenna
*I *535:I I *D gf180mcu_fd_sc_mcu7t5v0__clkbuf_1
*CAP
1 i_wb_addr[23] 0.000721199
2 *177:I 0.000208445
3 *535:I 0
4 *21:13 0.000929644
5 *177:I *483:A3 2.89427e-06
6 *177:I *486:A3 1.84507e-05
7 *177:I *487:A3 0.000453229
8 *21:13 o_wb_data[28] 0.000270304
9 *21:13 *482:A3 0.000111246
10 *21:13 *482:A4 7.55765e-06
11 *21:13 *486:A3 3.12451e-05
12 *21:13 *487:A3 4.76314e-06
13 *563:I *21:13 0
14 *15:9 *177:I 0
15 *16:11 *21:13 0.000488914
*RES
1 i_wb_addr[23] *21:13 15.705 
2 *21:13 *535:I 4.5 
3 *21:13 *177:I 6.48 
*END

*D_NET *22 0.0011401
*CONN
*P i_wb_addr[24] I
*I *178:I I *D gf180mcu_fd_sc_mcu7t5v0__antenna
*I *536:I I *D gf180mcu_fd_sc_mcu7t5v0__clkbuf_1
*CAP
1 i_wb_addr[24] 0.000158756
2 *178:I 0.000217409
3 *536:I 5.19339e-05
4 *22:5 0.000428099
5 *178:I *180:I 2.89349e-05
6 *178:I *182:I 3.17959e-05
7 *178:I *490:A3 2.31089e-05
8 *178:I *491:A1 3.98088e-05
9 *178:I *25:5 1.18076e-06
10 *536:I *490:A2 4.45837e-05
11 *22:5 *180:I 3.08806e-06
12 *22:5 *23:5 5.71292e-05
13 *22:5 *25:5 5.42682e-05
*RES
1 i_wb_addr[24] *22:5 1.665 
2 *22:5 *536:I 9.45 
3 *22:5 *178:I 10.62 
*END

*D_NET *23 0.00155406
*CONN
*P i_wb_addr[25] I
*I *180:I I *D gf180mcu_fd_sc_mcu7t5v0__antenna
*I *538:I I *D gf180mcu_fd_sc_mcu7t5v0__clkbuf_1
*CAP
1 i_wb_addr[25] 0.00015478
2 *180:I 0.000247641
3 *538:I 0
4 *23:5 0.000402421
5 *180:I *184:I 5.00136e-06
6 *180:I *490:A1 0.000299714
7 *180:I *490:A2 8.68398e-06
8 *180:I *491:A1 1.0415e-05
9 *180:I *542:I 0.000266156
10 *180:I *27:9 1.58263e-05
11 *23:5 *27:9 5.42682e-05
12 *178:I *180:I 2.89349e-05
13 *22:5 *180:I 3.08806e-06
14 *22:5 *23:5 5.71292e-05
*RES
1 i_wb_addr[25] *23:5 1.665 
2 *23:5 *538:I 9 
3 *23:5 *180:I 11.16 
*END

*D_NET *24 0.00231787
*CONN
*P i_wb_addr[26] I
*I *181:I I *D gf180mcu_fd_sc_mcu7t5v0__antenna
*I *539:I I *D gf180mcu_fd_sc_mcu7t5v0__clkbuf_1
*CAP
1 i_wb_addr[26] 0.000260035
2 *181:I 0.000366448
3 *539:I 2.65715e-05
4 *24:7 0.000653055
5 *181:I *183:I 8.58774e-05
6 *181:I *189:I 1.92097e-05
7 *181:I *484:A2 0
8 *181:I *484:A4 0.000119037
9 *539:I *484:A2 9.85004e-05
10 *24:7 o_wb_data[31] 4.92763e-05
11 *24:7 *183:I 2.3312e-06
12 *24:7 *189:I 2.52908e-05
13 *24:7 *26:5 5.13175e-05
14 *173:I *181:I 0.000496785
15 *201:I *181:I 6.41295e-05
*RES
1 i_wb_addr[26] *24:7 2.295 
2 *24:7 *539:I 9.27 
3 *24:7 *181:I 12.24 
*END

*D_NET *25 0.00121927
*CONN
*P i_wb_addr[27] I
*I *182:I I *D gf180mcu_fd_sc_mcu7t5v0__antenna
*I *540:I I *D gf180mcu_fd_sc_mcu7t5v0__clkbuf_1
*CAP
1 i_wb_addr[27] 0.000183696
2 *182:I 0.000238306
3 *540:I 7.01647e-05
4 *25:5 0.000492166
5 *182:I *198:I 1.10842e-05
6 *182:I *478:I 5.28753e-05
7 *182:I *490:A3 1.98195e-05
8 *182:I *40:5 1.18076e-06
9 *540:I *490:A3 1.31385e-05
10 *25:5 *40:5 4.95932e-05
11 *178:I *182:I 3.17959e-05
12 *178:I *25:5 1.18076e-06
13 *22:5 *25:5 5.42682e-05
*RES
1 i_wb_addr[27] *25:5 1.665 
2 *25:5 *540:I 9.45 
3 *25:5 *182:I 10.62 
*END

*D_NET *26 0.00161758
*CONN
*P i_wb_addr[28] I
*I *183:I I *D gf180mcu_fd_sc_mcu7t5v0__antenna
*I *541:I I *D gf180mcu_fd_sc_mcu7t5v0__clkbuf_1
*CAP
1 i_wb_addr[28] 0.000182038
2 *183:I 0.000220485
3 *541:I 9.49747e-05
4 *26:5 0.000497498
5 *183:I *187:I 5.84791e-06
6 *183:I *192:I 9.04539e-05
7 *183:I *484:A2 5.78072e-05
8 *183:I *484:A4 0.000155486
9 *183:I *30:5 1.18076e-06
10 *541:I *484:A2 0.000122689
11 *26:5 *30:5 4.95932e-05
12 *181:I *183:I 8.58774e-05
13 *24:7 *183:I 2.3312e-06
14 *24:7 *26:5 5.13175e-05
*RES
1 i_wb_addr[28] *26:5 1.665 
2 *26:5 *541:I 9.81 
3 *26:5 *183:I 10.98 
*END

*D_NET *27 0.00318107
*CONN
*P i_wb_addr[29] I
*I *184:I I *D gf180mcu_fd_sc_mcu7t5v0__antenna
*I *542:I I *D gf180mcu_fd_sc_mcu7t5v0__clkbuf_1
*CAP
1 i_wb_addr[29] 0.000208968
2 *184:I 0.00017606
3 *542:I 9.56282e-05
4 *27:9 0.000480657
5 *184:I *489:A2 0
6 *184:I *490:A2 0.000531209
7 *184:I *490:A3 0.000510176
8 *184:I *490:A4 1.86887e-06
9 *542:I *490:A3 0.000110413
10 *27:9 *186:I 0.000187251
11 *27:9 *490:A2 0.000309993
12 *27:9 *490:A3 0.000174506
13 *27:9 *29:9 5.30875e-05
14 *180:I *184:I 5.00136e-06
15 *180:I *542:I 0.000266156
16 *180:I *27:9 1.58263e-05
17 *23:5 *27:9 5.42682e-05
*RES
1 i_wb_addr[29] *27:9 3.105 
2 *27:9 *542:I 9.99 
3 *27:9 *184:I 11.16 
*END

*D_NET *28 0.00334808
*CONN
*P i_wb_addr[2] I
*I *185:I I *D gf180mcu_fd_sc_mcu7t5v0__antenna
*I *543:I I *D gf180mcu_fd_sc_mcu7t5v0__buf_1
*CAP
1 i_wb_addr[2] 0.000417905
2 *185:I 0.000163055
3 *543:I 0
4 *28:9 0.000580959
5 *185:I o_wb_data[10] 3.22348e-05
6 *185:I o_wb_data[27] 0.000497685
7 *185:I *189:I 8.30217e-05
8 *185:I *140:14 0.000892379
9 *28:9 o_wb_data[10] 0.000168102
10 *28:9 o_wb_data[27] 0.000355737
11 *17:9 *28:9 0.000157007
*RES
1 i_wb_addr[2] *28:9 4.725 
2 *28:9 *543:I 4.5 
3 *28:9 *185:I 7.56 
*END

*D_NET *29 0.00235779
*CONN
*P i_wb_addr[30] I
*I *544:I I *D gf180mcu_fd_sc_mcu7t5v0__clkbuf_1
*I *186:I I *D gf180mcu_fd_sc_mcu7t5v0__antenna
*CAP
1 i_wb_addr[30] 0.000319568
2 *544:I 5.68532e-05
3 *186:I 3.92727e-05
4 *29:9 0.000415694
5 *186:I *489:A1 0.0006118
6 *186:I *490:A3 0.000546617
7 *544:I *490:A3 2.89427e-06
8 *29:9 *187:I 1.18076e-06
9 *29:9 *489:A1 6.93035e-05
10 *29:9 *30:5 5.42682e-05
11 *27:9 *186:I 0.000187251
12 *27:9 *29:9 5.30875e-05
*RES
1 i_wb_addr[30] *29:9 7.155 
2 *29:9 *186:I 15.57 
3 *29:9 *544:I 4.77 
*END

*D_NET *30 0.00168608
*CONN
*P i_wb_addr[31] I
*I *187:I I *D gf180mcu_fd_sc_mcu7t5v0__antenna
*I *545:I I *D gf180mcu_fd_sc_mcu7t5v0__clkbuf_1
*CAP
1 i_wb_addr[31] 0.000183696
2 *187:I 0.00021946
3 *545:I 0.000123899
4 *30:5 0.000527055
5 *187:I *192:I 0.00011396
6 *187:I *484:A2 2.63437e-05
7 *187:I *489:A1 0
8 *187:I *490:A4 3.31858e-06
9 *187:I *491:A2 0.000307423
10 *545:I *489:A1 1.07374e-05
11 *545:I *490:A4 4.05054e-05
12 *173:I *187:I 1.7611e-05
13 *183:I *187:I 5.84791e-06
14 *183:I *30:5 1.18076e-06
15 *26:5 *30:5 4.95932e-05
16 *29:9 *187:I 1.18076e-06
17 *29:9 *30:5 5.42682e-05
*RES
1 i_wb_addr[31] *30:5 1.665 
2 *30:5 *545:I 9.81 
3 *30:5 *187:I 10.98 
*END

*D_NET *31 0.00495448
*CONN
*P i_wb_addr[3] I
*I *188:I I *D gf180mcu_fd_sc_mcu7t5v0__antenna
*I *546:I I *D gf180mcu_fd_sc_mcu7t5v0__buf_1
*CAP
1 i_wb_addr[3] 0.00083991
2 *188:I 0.000391201
3 *546:I 0
4 *31:11 0.00123111
5 *188:I o_wb_data[2] 6.91526e-05
6 *188:I *484:A4 1.56862e-05
7 *188:I *143:16 0.00135097
8 *31:11 o_wb_data[19] 0.000120169
9 *31:11 *482:A1 0.000253664
10 *31:11 *505:A1 1.39839e-05
11 *31:11 *35:7 0.000119202
12 *31:11 *128:24 0.000549427
*RES
1 i_wb_addr[3] *31:11 16.875 
2 *31:11 *546:I 4.5 
3 *31:11 *188:I 8.64 
*END

*D_NET *32 0.00461032
*CONN
*P i_wb_addr[4] I
*I *547:I I *D gf180mcu_fd_sc_mcu7t5v0__clkbuf_1
*I *189:I I *D gf180mcu_fd_sc_mcu7t5v0__antenna
*CAP
1 i_wb_addr[4] 0.000762758
2 *547:I 0
3 *189:I 0.000794714
4 *32:11 0.00155747
5 *189:I o_wb_data[27] 9.04462e-05
6 *189:I o_wb_data[31] 1.18477e-05
7 *189:I *128:24 1.00726e-05