*SPEF "ieee 1481-1999"
*DESIGN "core_alu"
*DATE "11:11:11 Fri 11 11, 1111"
*VENDOR "OpenRCX"
*PROGRAM "Parallel Extraction"
*VERSION "1.0"
*DESIGN_FLOW "NAME_SCOPE LOCAL" "PIN_CAP NONE"
*DIVIDER /
*DELIMITER :
*BUS_DELIMITER []
*T_UNIT 1 NS
*C_UNIT 1 PF
*R_UNIT 1 OHM
*L_UNIT 1 HENRY

*NAME_MAP
*1 clk
*2 i_wb_addr[0]
*3 i_wb_addr[10]
*4 i_wb_addr[11]
*5 i_wb_addr[12]
*6 i_wb_addr[13]
*7 i_wb_addr[14]
*8 i_wb_addr[15]
*9 i_wb_addr[16]
*10 i_wb_addr[17]
*11 i_wb_addr[18]
*12 i_wb_addr[19]
*13 i_wb_addr[1]
*14 i_wb_addr[20]
*15 i_wb_addr[21]
*16 i_wb_addr[22]
*17 i_wb_addr[23]
*18 i_wb_addr[24]
*19 i_wb_addr[25]
*20 i_wb_addr[26]
*21 i_wb_addr[27]
*22 i_wb_addr[28]
*23 i_wb_addr[29]
*24 i_wb_addr[2]
*25 i_wb_addr[30]
*26 i_wb_addr[31]
*27 i_wb_addr[3]
*28 i_wb_addr[4]
*29 i_wb_addr[5]
*30 i_wb_addr[6]
*31 i_wb_addr[7]
*32 i_wb_addr[8]
*33 i_wb_addr[9]
*34 i_wb_cyc
*35 i_wb_data[0]
*36 i_wb_data[10]
*37 i_wb_data[11]
*38 i_wb_data[12]
*39 i_wb_data[13]
*40 i_wb_data[14]
*41 i_wb_data[15]
*42 i_wb_data[16]
*43 i_wb_data[17]
*44 i_wb_data[18]
*45 i_wb_data[19]
*46 i_wb_data[1]
*47 i_wb_data[20]
*48 i_wb_data[21]
*49 i_wb_data[22]
*50 i_wb_data[23]
*51 i_wb_data[24]
*52 i_wb_data[25]
*53 i_wb_data[2]
*54 i_wb_data[3]
*55 i_wb_data[4]
*56 i_wb_data[5]
*57 i_wb_data[6]
*58 i_wb_data[7]
*59 i_wb_data[8]
*60 i_wb_data[9]
*61 i_wb_stb
*62 i_wb_we
*63 o_wb_ack
*64 o_wb_data[0]
*65 o_wb_data[1]
*66 o_wb_data[2]
*67 o_wb_data[3]
*68 o_wb_data[4]
*69 o_wb_data[5]
*70 o_wb_data[6]
*71 o_wb_data[7]
*72 net63
*73 reset
*76 _000_
*77 _001_
*78 _002_
*79 _003_
*80 _004_
*81 _005_
*82 _006_
*83 _007_
*84 _008_
*85 _009_
*86 _010_
*87 _011_
*88 _012_
*89 _013_
*90 _014_
*91 _015_
*92 _016_
*93 _017_
*94 _018_
*95 _019_
*96 _020_
*97 _021_
*98 _022_
*99 _023_
*100 _024_
*101 _025_
*102 _026_
*103 _027_
*104 _028_
*105 _029_
*106 _030_
*107 _031_
*108 _032_
*109 _033_
*110 _034_
*111 _035_
*112 _036_
*113 _037_
*114 _038_
*115 _039_
*116 _040_
*117 _041_
*118 _042_
*119 _043_
*120 _044_
*121 _045_
*122 _046_
*123 _047_
*124 _048_
*125 _049_
*126 _050_
*127 _051_
*128 _052_
*129 _053_
*130 _054_
*131 _055_
*132 _056_
*133 _057_
*134 _058_
*135 _059_
*136 _060_
*137 _061_
*138 _062_
*139 _063_
*140 _064_
*141 _065_
*142 _066_
*143 _067_
*144 _068_
*145 _069_
*146 _070_
*147 _071_
*148 _072_
*149 _073_
*150 _074_
*151 _075_
*152 _076_
*153 _077_
*154 _078_
*155 _079_
*156 _080_
*157 _081_
*158 _082_
*159 _083_
*160 _084_
*161 _085_
*162 _086_
*163 _087_
*164 _088_
*165 _089_
*166 _090_
*167 _091_
*168 _092_
*169 _093_
*170 _094_
*171 _095_
*172 _096_
*173 _097_
*174 _098_
*175 _099_
*176 _100_
*177 _101_
*178 _102_
*179 _103_
*180 _104_
*181 _105_
*182 _106_
*183 _107_
*184 _108_
*185 _109_
*186 _110_
*187 _111_
*188 _112_
*189 _113_
*190 _114_
*191 _115_
*192 _116_
*193 _117_
*194 _118_
*195 _119_
*196 _120_
*197 _121_
*198 _122_
*199 _123_
*200 _124_
*201 _125_
*202 _126_
*203 _127_
*204 _128_
*205 _129_
*206 _130_
*207 _131_
*208 _132_
*209 _133_
*210 _134_
*211 _135_
*212 _136_
*213 _137_
*214 _138_
*215 _139_
*216 _140_
*217 _141_
*218 _142_
*219 _143_
*220 _144_
*221 _145_
*222 _146_
*223 _147_
*224 _148_
*225 _149_
*226 _150_
*227 _151_
*228 _152_
*229 _153_
*230 _154_
*231 _155_
*232 _156_
*233 _157_
*234 _158_
*235 _159_
*236 _160_
*237 _161_
*238 _162_
*239 _163_
*240 _164_
*241 _165_
*242 _166_
*243 _167_
*244 _168_
*245 _169_
*246 _170_
*247 _171_
*248 _172_
*249 _173_
*250 add_out_d0\[0\]
*251 add_out_d0\[1\]
*252 add_out_d0\[2\]
*253 add_out_d0\[3\]
*254 add_out_d0\[4\]
*255 add_out_d0\[5\]
*256 add_out_d0\[6\]
*257 add_out_d0\[7\]
*258 add_out_d1\[0\]
*259 add_out_d1\[1\]
*260 add_out_d1\[2\]
*261 add_out_d1\[3\]
*262 add_out_d1\[4\]
*263 add_out_d1\[5\]
*264 add_out_d1\[6\]
*265 add_out_d1\[7\]
*266 add_out_d2\[0\]
*267 add_out_d2\[1\]
*268 add_out_d2\[2\]
*269 add_out_d2\[3\]
*270 add_out_d2\[4\]
*271 add_out_d2\[5\]
*272 add_out_d2\[6\]
*273 add_out_d2\[7\]
*274 add_out_d3\[0\]
*275 add_out_d3\[1\]
*276 add_out_d3\[2\]
*277 add_out_d3\[3\]
*278 add_out_d3\[4\]
*279 add_out_d3\[5\]
*280 add_out_d3\[6\]
*281 add_out_d3\[7\]
*282 add_out_d4\[0\]
*283 add_out_d4\[1\]
*284 add_out_d4\[2\]
*285 add_out_d4\[3\]
*286 add_out_d4\[4\]
*287 add_out_d4\[5\]
*288 add_out_d4\[6\]
*289 add_out_d4\[7\]
*290 add_out_d5\[0\]
*291 add_out_d5\[1\]
*292 add_out_d5\[2\]
*293 add_out_d5\[3\]
*294 add_out_d5\[4\]
*295 add_out_d5\[5\]
*296 add_out_d5\[6\]
*297 add_out_d5\[7\]
*298 add_out_d6\[0\]
*299 add_out_d6\[1\]
*300 add_out_d6\[2\]
*301 add_out_d6\[3\]
*302 add_out_d6\[4\]
*303 add_out_d6\[5\]
*304 add_out_d6\[6\]
*305 add_out_d6\[7\]
*306 add_out_d7\[0\]
*307 add_out_d7\[1\]
*308 add_out_d7\[2\]
*309 add_out_d7\[3\]
*310 add_out_d7\[4\]
*311 add_out_d7\[5\]
*312 add_out_d7\[6\]
*313 add_out_d7\[7\]
*314 add_u0\._000_
*315 add_u0\._001_
*316 add_u0\._002_
*317 add_u0\._003_
*318 add_u0\._004_
*319 add_u0\._005_
*320 add_u0\._006_
*321 add_u0\._007_
*322 add_u0\._008_
*323 add_u0\._009_
*324 add_u0\._010_
*325 add_u0\._011_
*326 add_u0\._012_
*327 add_u0\._013_
*328 add_u0\._014_
*329 add_u0\._015_
*330 add_u0\._016_
*331 add_u0\._017_
*332 add_u0\._018_
*333 add_u0\._019_
*334 add_u0\._020_
*335 add_u0\._021_
*336 add_u0\._022_
*337 add_u0\._023_
*338 add_u0\._024_
*339 add_u0\._025_
*340 add_u0\._026_
*341 add_u0\._027_
*342 add_u0\._028_
*343 add_u0\._029_
*344 add_u0\._030_
*345 add_u0\._031_
*346 add_u0\._032_
*347 add_u0\._033_
*348 add_u0\._034_
*349 add_u0\._035_
*350 add_u0\._036_
*351 add_u0\._037_
*352 add_u0\._038_
*353 add_u0\._039_
*354 add_u0\._040_
*355 add_u0\._041_
*356 add_u0\._042_
*357 add_u0\._043_
*358 add_u0\._044_
*359 add_u0\._045_
*360 add_u0\._046_
*361 add_u0\._047_
*362 add_u0\._048_
*363 add_u0\._049_
*364 add_u0\._050_
*365 add_u0\._051_
*366 add_u0\._052_
*367 add_u0\.a\[0\]
*368 add_u0\.a\[1\]
*369 add_u0\.a\[2\]
*370 add_u0\.a\[3\]
*371 add_u0\.a\[4\]
*372 add_u0\.a\[5\]
*373 add_u0\.a\[6\]
*374 add_u0\.a\[7\]
*375 add_u0\.a_in\[0\]
*376 add_u0\.a_in\[1\]
*377 add_u0\.a_in\[2\]
*378 add_u0\.a_in\[3\]
*379 add_u0\.a_in\[4\]
*380 add_u0\.a_in\[5\]
*381 add_u0\.a_in\[6\]
*382 add_u0\.b\[0\]
*383 add_u0\.b\[1\]
*384 add_u0\.b\[2\]
*385 add_u0\.b\[3\]
*386 add_u0\.b\[4\]
*387 add_u0\.b\[5\]
*388 add_u0\.b\[6\]
*389 add_u0\.b\[7\]
*390 add_u0\.b_in\[0\]
*391 add_u0\.b_in\[1\]
*392 add_u0\.b_in\[2\]
*393 add_u0\.b_in\[3\]
*394 add_u0\.b_in\[4\]
*395 add_u0\.b_in\[5\]
*396 add_u0\.b_in\[6\]
*397 add_u0\.c_in
*398 add_u0\.ppa_u0\.S\[0\]
*399 add_u0\.ppa_u0\.S\[1\]
*400 add_u0\.ppa_u0\.S\[2\]
*401 add_u0\.ppa_u0\.S\[3\]
*402 add_u0\.ppa_u0\.S\[4\]
*403 add_u0\.ppa_u0\.S\[5\]
*404 add_u0\.ppa_u0\.S\[6\]
*405 add_u0\.ppa_u0\.cg21
*406 add_u0\.ppa_u0\.cg43
*407 add_u0\.ppa_u0\.cg54
*408 add_u0\.ppa_u0\.cg\[0\]
*409 add_u0\.ppa_u0\.cg\[1\]
*410 add_u0\.ppa_u0\.cg\[2\]
*411 add_u0\.ppa_u0\.cg\[3\]
*412 add_u0\.ppa_u0\.cg\[4\]
*413 add_u0\.ppa_u0\.cg\[5\]
*414 add_u0\.ppa_u0\.cp21
*415 add_u0\.ppa_u0\.cp43
*416 add_u0\.ppa_u0\.cp54
*417 add_u0\.ppa_u0\.d1_0\.a2\._0_
*418 add_u0\.ppa_u0\.d1_0\.a2\.in0
*419 add_u0\.ppa_u0\.d1_0\.a2\.out
*420 add_u0\.ppa_u0\.d1_0\.g1
*421 add_u0\.ppa_u0\.d1_0\.o2\._0_
*422 add_u0\.ppa_u0\.d2_0\.a2\._0_
*423 add_u0\.ppa_u0\.d2_0\.a2\.in0
*424 add_u0\.ppa_u0\.d2_0\.a2\.out
*425 add_u0\.ppa_u0\.d2_0\.g1
*426 add_u0\.ppa_u0\.d2_0\.o2\._0_
*427 add_u0\.ppa_u0\.d3_0\.a1\._0_
*428 add_u0\.ppa_u0\.d3_0\.a1\.in0
*429 add_u0\.ppa_u0\.d3_0\.a2\._0_
*430 add_u0\.ppa_u0\.d3_0\.a2\.out
*431 add_u0\.ppa_u0\.d3_0\.g1
*432 add_u0\.ppa_u0\.d3_0\.o2\._0_
*433 add_u0\.ppa_u0\.d3_1\.a2\._0_
*434 add_u0\.ppa_u0\.d3_1\.a2\.out
*435 add_u0\.ppa_u0\.d3_1\.o2\._0_
*436 add_u0\.ppa_u0\.d4_0\.a2\._0_
*437 add_u0\.ppa_u0\.d4_0\.a2\.in0
*438 add_u0\.ppa_u0\.d4_0\.a2\.out
*439 add_u0\.ppa_u0\.d4_0\.g1
*440 add_u0\.ppa_u0\.d4_0\.o2\._0_
*441 add_u0\.ppa_u0\.d5_0\.a1\._0_
*442 add_u0\.ppa_u0\.d5_0\.a1\.in0
*443 add_u0\.ppa_u0\.d5_0\.a2\._0_
*444 add_u0\.ppa_u0\.d5_0\.a2\.out
*445 add_u0\.ppa_u0\.d5_0\.g1
*446 add_u0\.ppa_u0\.d5_0\.o2\._0_
*447 add_u0\.ppa_u0\.d5_1\.a2\._0_
*448 add_u0\.ppa_u0\.d5_1\.a2\.out
*449 add_u0\.ppa_u0\.d5_1\.o2\._0_
*450 add_u0\.ppa_u0\.d6_0\.a1\._0_
*451 add_u0\.ppa_u0\.d6_0\.a1\.in0
*452 add_u0\.ppa_u0\.d6_0\.a2\._0_
*453 add_u0\.ppa_u0\.d6_0\.a2\.out
*454 add_u0\.ppa_u0\.d6_0\.g1
*455 add_u0\.ppa_u0\.d6_0\.o2\._0_
*456 add_u0\.ppa_u0\.d6_1\.a2\._0_
*457 add_u0\.ppa_u0\.d6_1\.a2\.out
*458 add_u0\.ppa_u0\.d6_1\.o2\._0_
*459 add_u0\.ppa_u0\.p_0\.a\._0_
*460 add_u0\.ppa_u0\.p_0\.o\._0_
*461 add_u0\.ppa_u0\.p_1\.a\._0_
*462 add_u0\.ppa_u0\.p_1\.o\._0_
*463 add_u0\.ppa_u0\.p_2\.a\._0_
*464 add_u0\.ppa_u0\.p_2\.o\._0_
*465 add_u0\.ppa_u0\.p_3\.a\._0_
*466 add_u0\.ppa_u0\.p_3\.o\._0_
*467 add_u0\.ppa_u0\.p_4\.a\._0_
*468 add_u0\.ppa_u0\.p_4\.o\._0_
*469 add_u0\.ppa_u0\.p_5\.a\._0_
*470 add_u0\.ppa_u0\.p_5\.o\._0_
*471 add_u0\.ppa_u0\.s0\.temp
*472 add_u0\.ppa_u0\.s0\.xor2_0\._0_
*473 add_u0\.ppa_u0\.s0\.xor2_1\._0_
*474 add_u0\.ppa_u0\.s1\.temp
*475 add_u0\.ppa_u0\.s1\.xor2_0\._0_
*476 add_u0\.ppa_u0\.s1\.xor2_1\._0_
*477 add_u0\.ppa_u0\.s2\.temp
*478 add_u0\.ppa_u0\.s2\.xor2_0\._0_
*479 add_u0\.ppa_u0\.s2\.xor2_1\._0_
*480 add_u0\.ppa_u0\.s3\.temp
*481 add_u0\.ppa_u0\.s3\.xor2_0\._0_
*482 add_u0\.ppa_u0\.s3\.xor2_1\._0_
*483 add_u0\.ppa_u0\.s4\.temp
*484 add_u0\.ppa_u0\.s4\.xor2_0\._0_
*485 add_u0\.ppa_u0\.s4\.xor2_1\._0_
*486 add_u0\.ppa_u0\.s5\.temp
*487 add_u0\.ppa_u0\.s5\.xor2_0\._0_
*488 add_u0\.ppa_u0\.s5\.xor2_1\._0_
*489 add_u0\.ppa_u0\.s6\.temp
*490 add_u0\.ppa_u0\.s6\.xor2_0\._0_
*491 add_u0\.ppa_u0\.s6\.xor2_1\._0_
*492 add_u0\.sign
*493 add_u0\.sum\[7\]
*494 clknet_0_clk
*495 clknet_3_0__leaf_clk
*496 clknet_3_1__leaf_clk
*497 clknet_3_2__leaf_clk
*498 clknet_3_3__leaf_clk
*499 clknet_3_4__leaf_clk
*500 clknet_3_5__leaf_clk
*501 clknet_3_6__leaf_clk
*502 clknet_3_7__leaf_clk
*503 clknet_leaf_0_clk
*504 clknet_leaf_10_clk
*505 clknet_leaf_11_clk
*506 clknet_leaf_12_clk
*507 clknet_leaf_13_clk
*508 clknet_leaf_14_clk
*509 clknet_leaf_15_clk
*510 clknet_leaf_16_clk
*511 clknet_leaf_17_clk
*512 clknet_leaf_18_clk
*513 clknet_leaf_1_clk
*514 clknet_leaf_20_clk
*515 clknet_leaf_21_clk
*516 clknet_leaf_22_clk
*517 clknet_leaf_23_clk
*518 clknet_leaf_24_clk
*519 clknet_leaf_25_clk
*520 clknet_leaf_26_clk
*521 clknet_leaf_27_clk
*522 clknet_leaf_28_clk
*523 clknet_leaf_29_clk
*524 clknet_leaf_2_clk
*525 clknet_leaf_30_clk
*526 clknet_leaf_31_clk
*527 clknet_leaf_32_clk
*528 clknet_leaf_33_clk
*529 clknet_leaf_34_clk
*530 clknet_leaf_35_clk
*531 clknet_leaf_36_clk
*532 clknet_leaf_37_clk
*533 clknet_leaf_38_clk
*534 clknet_leaf_39_clk
*535 clknet_leaf_3_clk
*536 clknet_leaf_40_clk
*537 clknet_leaf_41_clk
*538 clknet_leaf_42_clk
*539 clknet_leaf_44_clk
*540 clknet_leaf_45_clk
*541 clknet_leaf_46_clk
*542 clknet_leaf_48_clk
*543 clknet_leaf_49_clk
*544 clknet_leaf_4_clk
*545 clknet_leaf_50_clk
*546 clknet_leaf_51_clk
*547 clknet_leaf_53_clk
*548 clknet_leaf_54_clk
*549 clknet_leaf_55_clk
*550 clknet_leaf_56_clk
*551 clknet_leaf_57_clk
*552 clknet_leaf_58_clk
*553 clknet_leaf_59_clk
*554 clknet_leaf_5_clk
*555 clknet_leaf_60_clk
*556 clknet_leaf_61_clk
*557 clknet_leaf_62_clk
*558 clknet_leaf_63_clk
*559 clknet_leaf_64_clk
*560 clknet_leaf_65_clk
*561 clknet_leaf_66_clk
*562 clknet_leaf_67_clk
*563 clknet_leaf_68_clk
*564 clknet_leaf_69_clk
*565 clknet_leaf_6_clk
*566 clknet_leaf_70_clk
*567 clknet_leaf_71_clk
*568 clknet_leaf_72_clk
*569 clknet_leaf_73_clk
*570 clknet_leaf_75_clk
*571 clknet_leaf_76_clk
*572 clknet_leaf_77_clk
*573 clknet_leaf_78_clk
*574 clknet_leaf_79_clk
*575 clknet_leaf_7_clk
*576 clknet_leaf_80_clk
*577 clknet_leaf_81_clk
*578 clknet_leaf_82_clk
*579 clknet_leaf_83_clk
*580 clknet_leaf_84_clk
*581 clknet_leaf_86_clk
*582 clknet_leaf_87_clk
*583 clknet_leaf_88_clk
*584 clknet_leaf_89_clk
*585 clknet_leaf_8_clk
*586 clknet_leaf_90_clk
*587 clknet_leaf_91_clk
*588 clknet_leaf_92_clk
*589 clknet_leaf_93_clk
*590 clknet_leaf_94_clk
*591 clknet_leaf_95_clk
*592 clknet_leaf_96_clk
*593 clknet_leaf_9_clk
*594 mul_out_d0\[0\]
*595 mul_out_d0\[1\]
*596 mul_out_d0\[2\]
*597 mul_out_d0\[3\]
*598 mul_out_d0\[4\]
*599 mul_out_d0\[5\]
*600 mul_out_d0\[6\]
*601 mul_out_d0\[7\]
*602 mult_add_u0\._000_
*603 mult_add_u0\._001_
*604 mult_add_u0\._002_
*605 mult_add_u0\._003_
*606 mult_add_u0\._004_
*607 mult_add_u0\._005_
*608 mult_add_u0\._006_
*609 mult_add_u0\._007_
*610 mult_add_u0\._008_
*611 mult_add_u0\._009_
*612 mult_add_u0\._010_
*613 mult_add_u0\._011_
*614 mult_add_u0\._012_
*615 mult_add_u0\._013_
*616 mult_add_u0\._014_
*617 mult_add_u0\._015_
*618 mult_add_u0\._016_
*619 mult_add_u0\.add0\._000_
*620 mult_add_u0\.add0\._001_
*621 mult_add_u0\.add0\._002_
*622 mult_add_u0\.add0\._003_
*623 mult_add_u0\.add0\._004_
*624 mult_add_u0\.add0\._005_
*625 mult_add_u0\.add0\._006_
*626 mult_add_u0\.add0\._007_
*627 mult_add_u0\.add0\._008_
*628 mult_add_u0\.add0\._009_
*629 mult_add_u0\.add0\._010_
*630 mult_add_u0\.add0\._011_
*631 mult_add_u0\.add0\._012_
*632 mult_add_u0\.add0\._013_
*633 mult_add_u0\.add0\._014_
*634 mult_add_u0\.add0\._015_
*635 mult_add_u0\.add0\._016_
*636 mult_add_u0\.add0\._017_
*637 mult_add_u0\.add0\._018_
*638 mult_add_u0\.add0\._019_
*639 mult_add_u0\.add0\._020_
*640 mult_add_u0\.add0\._021_
*641 mult_add_u0\.add0\._022_
*642 mult_add_u0\.add0\._023_
*643 mult_add_u0\.add0\._024_
*644 mult_add_u0\.add0\._025_
*645 mult_add_u0\.add0\._026_
*646 mult_add_u0\.add0\._027_
*647 mult_add_u0\.add0\._028_
*648 mult_add_u0\.add0\._029_
*649 mult_add_u0\.add0\._030_
*650 mult_add_u0\.add0\._031_
*651 mult_add_u0\.add0\._032_
*652 mult_add_u0\.add0\._033_
*653 mult_add_u0\.add0\._034_
*654 mult_add_u0\.add0\._035_
*655 mult_add_u0\.add0\._036_
*656 mult_add_u0\.add0\._037_
*657 mult_add_u0\.add0\._038_
*658 mult_add_u0\.add0\._039_
*659 mult_add_u0\.add0\._040_
*660 mult_add_u0\.add0\._041_
*661 mult_add_u0\.add0\._042_
*662 mult_add_u0\.add0\._043_
*663 mult_add_u0\.add0\._044_
*664 mult_add_u0\.add0\._045_
*665 mult_add_u0\.add0\._046_
*666 mult_add_u0\.add0\._047_
*667 mult_add_u0\.add0\._048_
*668 mult_add_u0\.add0\._049_
*669 mult_add_u0\.add0\._050_
*670 mult_add_u0\.add0\._051_
*671 mult_add_u0\.add0\._052_
*672 mult_add_u0\.add0\.a\[0\]
*673 mult_add_u0\.add0\.a\[1\]
*674 mult_add_u0\.add0\.a\[2\]
*675 mult_add_u0\.add0\.a\[3\]
*676 mult_add_u0\.add0\.a\[4\]
*677 mult_add_u0\.add0\.a\[5\]
*678 mult_add_u0\.add0\.a\[6\]
*679 mult_add_u0\.add0\.a\[7\]
*680 mult_add_u0\.add0\.a_in\[0\]
*681 mult_add_u0\.add0\.a_in\[1\]
*682 mult_add_u0\.add0\.a_in\[2\]
*683 mult_add_u0\.add0\.a_in\[3\]
*684 mult_add_u0\.add0\.a_in\[4\]
*685 mult_add_u0\.add0\.a_in\[5\]
*686 mult_add_u0\.add0\.a_in\[6\]
*687 mult_add_u0\.add0\.b\[0\]
*688 mult_add_u0\.add0\.b\[1\]
*689 mult_add_u0\.add0\.b\[2\]
*690 mult_add_u0\.add0\.b\[3\]
*691 mult_add_u0\.add0\.b\[4\]
*692 mult_add_u0\.add0\.b\[5\]
*693 mult_add_u0\.add0\.b\[6\]
*694 mult_add_u0\.add0\.b\[7\]
*695 mult_add_u0\.add0\.b_in\[0\]
*696 mult_add_u0\.add0\.b_in\[1\]
*697 mult_add_u0\.add0\.b_in\[2\]
*698 mult_add_u0\.add0\.b_in\[3\]
*699 mult_add_u0\.add0\.b_in\[4\]
*700 mult_add_u0\.add0\.b_in\[5\]
*701 mult_add_u0\.add0\.b_in\[6\]
*702 mult_add_u0\.add0\.c_in
*703 mult_add_u0\.add0\.ppa_u0\.S\[0\]
*704 mult_add_u0\.add0\.ppa_u0\.S\[1\]
*705 mult_add_u0\.add0\.ppa_u0\.S\[2\]
*706 mult_add_u0\.add0\.ppa_u0\.S\[3\]
*707 mult_add_u0\.add0\.ppa_u0\.S\[4\]
*708 mult_add_u0\.add0\.ppa_u0\.S\[5\]
*709 mult_add_u0\.add0\.ppa_u0\.S\[6\]
*710 mult_add_u0\.add0\.ppa_u0\.cg21
*711 mult_add_u0\.add0\.ppa_u0\.cg43
*712 mult_add_u0\.add0\.ppa_u0\.cg54
*713 mult_add_u0\.add0\.ppa_u0\.cg\[0\]
*714 mult_add_u0\.add0\.ppa_u0\.cg\[1\]
*715 mult_add_u0\.add0\.ppa_u0\.cg\[2\]
*716 mult_add_u0\.add0\.ppa_u0\.cg\[3\]
*717 mult_add_u0\.add0\.ppa_u0\.cg\[4\]
*718 mult_add_u0\.add0\.ppa_u0\.cg\[5\]
*719 mult_add_u0\.add0\.ppa_u0\.cp21
*720 mult_add_u0\.add0\.ppa_u0\.cp43
*721 mult_add_u0\.add0\.ppa_u0\.cp54
*722 mult_add_u0\.add0\.ppa_u0\.d1_0\.a2\._0_
*723 mult_add_u0\.add0\.ppa_u0\.d1_0\.a2\.in0
*724 mult_add_u0\.add0\.ppa_u0\.d1_0\.a2\.out
*725 mult_add_u0\.add0\.ppa_u0\.d1_0\.g1
*726 mult_add_u0\.add0\.ppa_u0\.d1_0\.o2\._0_
*727 mult_add_u0\.add0\.ppa_u0\.d2_0\.a2\._0_
*728 mult_add_u0\.add0\.ppa_u0\.d2_0\.a2\.in0
*729 mult_add_u0\.add0\.ppa_u0\.d2_0\.a2\.out
*730 mult_add_u0\.add0\.ppa_u0\.d2_0\.g1
*731 mult_add_u0\.add0\.ppa_u0\.d2_0\.o2\._0_
*732 mult_add_u0\.add0\.ppa_u0\.d3_0\.a1\._0_
*733 mult_add_u0\.add0\.ppa_u0\.d3_0\.a1\.in0
*734 mult_add_u0\.add0\.ppa_u0\.d3_0\.a2\._0_
*735 mult_add_u0\.add0\.ppa_u0\.d3_0\.a2\.out
*736 mult_add_u0\.add0\.ppa_u0\.d3_0\.g1
*737 mult_add_u0\.add0\.ppa_u0\.d3_0\.o2\._0_
*738 mult_add_u0\.add0\.ppa_u0\.d3_1\.a2\._0_
*739 mult_add_u0\.add0\.ppa_u0\.d3_1\.a2\.out
*740 mult_add_u0\.add0\.ppa_u0\.d3_1\.o2\._0_
*741 mult_add_u0\.add0\.ppa_u0\.d4_0\.a2\._0_
*742 mult_add_u0\.add0\.ppa_u0\.d4_0\.a2\.in0
*743 mult_add_u0\.add0\.ppa_u0\.d4_0\.a2\.out
*744 mult_add_u0\.add0\.ppa_u0\.d4_0\.g1
*745 mult_add_u0\.add0\.ppa_u0\.d4_0\.o2\._0_
*746 mult_add_u0\.add0\.ppa_u0\.d5_0\.a1\._0_
*747 mult_add_u0\.add0\.ppa_u0\.d5_0\.a1\.in0
*748 mult_add_u0\.add0\.ppa_u0\.d5_0\.a2\._0_
*749 mult_add_u0\.add0\.ppa_u0\.d5_0\.a2\.out
*750 mult_add_u0\.add0\.ppa_u0\.d5_0\.g1
*751 mult_add_u0\.add0\.ppa_u0\.d5_0\.o2\._0_
*752 mult_add_u0\.add0\.ppa_u0\.d5_1\.a2\._0_
*753 mult_add_u0\.add0\.ppa_u0\.d5_1\.a2\.out
*754 mult_add_u0\.add0\.ppa_u0\.d5_1\.o2\._0_
*755 mult_add_u0\.add0\.ppa_u0\.d6_0\.a1\._0_
*756 mult_add_u0\.add0\.ppa_u0\.d6_0\.a1\.in0
*757 mult_add_u0\.add0\.ppa_u0\.d6_0\.a2\._0_
*758 mult_add_u0\.add0\.ppa_u0\.d6_0\.a2\.out
*759 mult_add_u0\.add0\.ppa_u0\.d6_0\.g1
*760 mult_add_u0\.add0\.ppa_u0\.d6_0\.o2\._0_
*761 mult_add_u0\.add0\.ppa_u0\.d6_1\.a2\._0_
*762 mult_add_u0\.add0\.ppa_u0\.d6_1\.a2\.out
*763 mult_add_u0\.add0\.ppa_u0\.d6_1\.o2\._0_
*764 mult_add_u0\.add0\.ppa_u0\.p_0\.a\._0_
*765 mult_add_u0\.add0\.ppa_u0\.p_0\.o\._0_
*766 mult_add_u0\.add0\.ppa_u0\.p_1\.a\._0_
*767 mult_add_u0\.add0\.ppa_u0\.p_1\.o\._0_
*768 mult_add_u0\.add0\.ppa_u0\.p_2\.a\._0_
*769 mult_add_u0\.add0\.ppa_u0\.p_2\.o\._0_
*770 mult_add_u0\.add0\.ppa_u0\.p_3\.a\._0_
*771 mult_add_u0\.add0\.ppa_u0\.p_3\.o\._0_
*772 mult_add_u0\.add0\.ppa_u0\.p_4\.a\._0_
*773 mult_add_u0\.add0\.ppa_u0\.p_4\.o\._0_
*774 mult_add_u0\.add0\.ppa_u0\.p_5\.a\._0_
*775 mult_add_u0\.add0\.ppa_u0\.p_5\.o\._0_
*776 mult_add_u0\.add0\.ppa_u0\.s0\.temp
*777 mult_add_u0\.add0\.ppa_u0\.s0\.xor2_0\._0_
*778 mult_add_u0\.add0\.ppa_u0\.s0\.xor2_1\._0_
*779 mult_add_u0\.add0\.ppa_u0\.s1\.temp
*780 mult_add_u0\.add0\.ppa_u0\.s1\.xor2_0\._0_
*781 mult_add_u0\.add0\.ppa_u0\.s1\.xor2_1\._0_
*782 mult_add_u0\.add0\.ppa_u0\.s2\.temp
*783 mult_add_u0\.add0\.ppa_u0\.s2\.xor2_0\._0_
*784 mult_add_u0\.add0\.ppa_u0\.s2\.xor2_1\._0_
*785 mult_add_u0\.add0\.ppa_u0\.s3\.temp
*786 mult_add_u0\.add0\.ppa_u0\.s3\.xor2_0\._0_
*787 mult_add_u0\.add0\.ppa_u0\.s3\.xor2_1\._0_
*788 mult_add_u0\.add0\.ppa_u0\.s4\.temp
*789 mult_add_u0\.add0\.ppa_u0\.s4\.xor2_0\._0_
*790 mult_add_u0\.add0\.ppa_u0\.s4\.xor2_1\._0_
*791 mult_add_u0\.add0\.ppa_u0\.s5\.temp
*792 mult_add_u0\.add0\.ppa_u0\.s5\.xor2_0\._0_
*793 mult_add_u0\.add0\.ppa_u0\.s5\.xor2_1\._0_
*794 mult_add_u0\.add0\.ppa_u0\.s6\.temp
*795 mult_add_u0\.add0\.ppa_u0\.s6\.xor2_0\._0_
*796 mult_add_u0\.add0\.ppa_u0\.s6\.xor2_1\._0_
*797 mult_add_u0\.add0\.sign
*798 mult_add_u0\.add0\.sum\[7\]
*799 mult_add_u0\.b_in\[0\]
*800 mult_add_u0\.b_in\[1\]
*801 mult_add_u0\.b_in\[2\]
*802 mult_add_u0\.b_in\[3\]
*803 mult_add_u0\.b_in\[4\]
*804 mult_add_u0\.b_in\[5\]
*805 mult_add_u0\.b_in\[6\]
*806 mult_add_u0\.b_in\[7\]
*807 mult_add_u0\.b_in_d1\[0\]
*808 mult_add_u0\.b_in_d1\[1\]
*809 mult_add_u0\.b_in_d1\[2\]
*810 mult_add_u0\.b_in_d1\[3\]
*811 mult_add_u0\.b_in_d1\[4\]
*812 mult_add_u0\.b_in_d1\[5\]
*813 mult_add_u0\.b_in_d1\[6\]
*814 mult_add_u0\.b_in_d1\[7\]
*815 mult_add_u0\.b_in_d2\[0\]
*816 mult_add_u0\.b_in_d2\[1\]
*817 mult_add_u0\.b_in_d2\[2\]
*818 mult_add_u0\.b_in_d2\[3\]
*819 mult_add_u0\.b_in_d2\[4\]
*820 mult_add_u0\.b_in_d2\[5\]
*821 mult_add_u0\.b_in_d2\[6\]
*822 mult_add_u0\.b_in_d2\[7\]
*823 mult_add_u0\.b_in_d3\[0\]
*824 mult_add_u0\.b_in_d3\[1\]
*825 mult_add_u0\.b_in_d3\[2\]
*826 mult_add_u0\.b_in_d3\[3\]
*827 mult_add_u0\.b_in_d3\[4\]
*828 mult_add_u0\.b_in_d3\[5\]
*829 mult_add_u0\.b_in_d3\[6\]
*830 mult_add_u0\.b_in_d3\[7\]
*831 mult_add_u0\.b_in_d4\[0\]
*832 mult_add_u0\.b_in_d4\[1\]
*833 mult_add_u0\.b_in_d4\[2\]
*834 mult_add_u0\.b_in_d4\[3\]
*835 mult_add_u0\.b_in_d4\[4\]
*836 mult_add_u0\.b_in_d4\[5\]
*837 mult_add_u0\.b_in_d4\[6\]
*838 mult_add_u0\.b_in_d4\[7\]
*839 mult_add_u0\.b_in_d5\[0\]
*840 mult_add_u0\.b_in_d5\[1\]
*841 mult_add_u0\.b_in_d5\[2\]
*842 mult_add_u0\.b_in_d5\[3\]
*843 mult_add_u0\.b_in_d5\[4\]
*844 mult_add_u0\.b_in_d5\[5\]
*845 mult_add_u0\.b_in_d5\[6\]
*846 mult_add_u0\.b_in_d5\[7\]
*847 mult_add_u0\.b_in_d6\[0\]
*848 mult_add_u0\.b_in_d6\[1\]
*849 mult_add_u0\.b_in_d6\[2\]
*850 mult_add_u0\.b_in_d6\[3\]
*851 mult_add_u0\.b_in_d6\[4\]
*852 mult_add_u0\.b_in_d6\[5\]
*853 mult_add_u0\.b_in_d6\[6\]
*854 mult_add_u0\.b_in_d6\[7\]
*855 mult_add_u0\.m\[0\]
*856 mult_add_u0\.m\[1\]
*857 mult_add_u0\.m\[2\]
*858 mult_add_u0\.m\[3\]
*859 mult_add_u0\.m\[4\]
*860 mult_add_u0\.m\[5\]
*861 mult_add_u0\.m\[6\]
*862 mult_add_u0\.m\[7\]
*863 mult_add_u0\.mult0\.Q\[0\]\[0\]
*864 mult_add_u0\.mult0\.Q\[0\]\[1\]
*865 mult_add_u0\.mult0\.Q\[0\]\[2\]
*866 mult_add_u0\.mult0\.Q\[0\]\[3\]
*867 mult_add_u0\.mult0\.Q\[0\]\[4\]
*868 mult_add_u0\.mult0\.Q\[0\]\[5\]
*869 mult_add_u0\.mult0\.Q\[1\]\[0\]
*870 mult_add_u0\.mult0\.Q\[1\]\[1\]
*871 mult_add_u0\.mult0\.Q\[1\]\[2\]
*872 mult_add_u0\.mult0\.Q\[1\]\[3\]
*873 mult_add_u0\.mult0\.Q\[1\]\[4\]
*874 mult_add_u0\.mult0\.Q\[2\]\[0\]
*875 mult_add_u0\.mult0\.Q\[2\]\[1\]
*876 mult_add_u0\.mult0\.Q\[2\]\[2\]
*877 mult_add_u0\.mult0\.Q\[2\]\[3\]
*878 mult_add_u0\.mult0\.Q\[3\]\[0\]
*879 mult_add_u0\.mult0\.Q\[3\]\[1\]
*880 mult_add_u0\.mult0\.Q\[3\]\[2\]
*881 mult_add_u0\.mult0\.Q\[3\]\[6\]
*882 mult_add_u0\.mult0\.Q\[4\]\[0\]
*883 mult_add_u0\.mult0\.Q\[4\]\[1\]
*884 mult_add_u0\.mult0\.Q\[4\]\[5\]
*885 mult_add_u0\.mult0\.Q\[4\]\[6\]
*886 mult_add_u0\.mult0\.Q\[5\]\[0\]
*887 mult_add_u0\.mult0\.Q\[5\]\[4\]
*888 mult_add_u0\.mult0\.Q\[5\]\[5\]
*889 mult_add_u0\.mult0\.Q\[5\]\[6\]
*890 mult_add_u0\.mult0\.Q_s1\[0\]
*891 mult_add_u0\.mult0\.Q_s1\[1\]
*892 mult_add_u0\.mult0\.Q_s1\[2\]
*893 mult_add_u0\.mult0\.Q_s1\[3\]
*894 mult_add_u0\.mult0\.Q_s1\[4\]
*895 mult_add_u0\.mult0\.Q_s1\[5\]
*896 mult_add_u0\.mult0\.Q_s2\[0\]
*897 mult_add_u0\.mult0\.Q_s2\[1\]
*898 mult_add_u0\.mult0\.Q_s2\[2\]
*899 mult_add_u0\.mult0\.Q_s2\[3\]
*900 mult_add_u0\.mult0\.Q_s2\[4\]
*901 mult_add_u0\.mult0\.Q_s3\[0\]
*902 mult_add_u0\.mult0\.Q_s3\[1\]
*903 mult_add_u0\.mult0\.Q_s3\[2\]
*904 mult_add_u0\.mult0\.Q_s3\[3\]
*905 mult_add_u0\.mult0\.Q_s4\[0\]
*906 mult_add_u0\.mult0\.Q_s4\[1\]
*907 mult_add_u0\.mult0\.Q_s4\[2\]
*908 mult_add_u0\.mult0\.Q_s4\[6\]
*909 mult_add_u0\.mult0\.Q_s5\[0\]
*910 mult_add_u0\.mult0\.Q_s5\[1\]
*911 mult_add_u0\.mult0\.Q_s5\[5\]
*912 mult_add_u0\.mult0\.Q_s5\[6\]
*913 mult_add_u0\.mult0\.Q_s6\[0\]
*914 mult_add_u0\.mult0\.Q_s6\[4\]
*915 mult_add_u0\.mult0\.Q_s6\[5\]
*916 mult_add_u0\.mult0\.Q_s6\[6\]
*917 mult_add_u0\.mult0\._000_
*918 mult_add_u0\.mult0\._001_
*919 mult_add_u0\.mult0\._002_
*920 mult_add_u0\.mult0\._003_
*921 mult_add_u0\.mult0\._004_
*922 mult_add_u0\.mult0\._005_
*923 mult_add_u0\.mult0\._006_
*924 mult_add_u0\.mult0\._007_
*925 mult_add_u0\.mult0\._008_
*926 mult_add_u0\.mult0\._009_
*927 mult_add_u0\.mult0\._010_
*928 mult_add_u0\.mult0\._011_
*929 mult_add_u0\.mult0\._012_
*930 mult_add_u0\.mult0\._013_
*931 mult_add_u0\.mult0\._014_
*932 mult_add_u0\.mult0\._015_
*933 mult_add_u0\.mult0\._016_
*934 mult_add_u0\.mult0\.acc\[1\]\[0\]
*935 mult_add_u0\.mult0\.acc\[1\]\[1\]
*936 mult_add_u0\.mult0\.acc\[1\]\[2\]
*937 mult_add_u0\.mult0\.acc\[1\]\[3\]
*938 mult_add_u0\.mult0\.acc\[1\]\[4\]
*939 mult_add_u0\.mult0\.acc\[1\]\[5\]
*940 mult_add_u0\.mult0\.acc\[1\]\[6\]
*941 mult_add_u0\.mult0\.acc\[2\]\[0\]
*942 mult_add_u0\.mult0\.acc\[2\]\[1\]
*943 mult_add_u0\.mult0\.acc\[2\]\[2\]
*944 mult_add_u0\.mult0\.acc\[2\]\[3\]
*945 mult_add_u0\.mult0\.acc\[2\]\[4\]
*946 mult_add_u0\.mult0\.acc\[2\]\[5\]
*947 mult_add_u0\.mult0\.acc\[2\]\[6\]
*948 mult_add_u0\.mult0\.acc\[3\]\[0\]
*949 mult_add_u0\.mult0\.acc\[3\]\[1\]
*950 mult_add_u0\.mult0\.acc\[3\]\[2\]
*951 mult_add_u0\.mult0\.acc\[3\]\[3\]
*952 mult_add_u0\.mult0\.acc\[3\]\[4\]
*953 mult_add_u0\.mult0\.acc\[3\]\[5\]
*954 mult_add_u0\.mult0\.acc\[3\]\[6\]
*955 mult_add_u0\.mult0\.acc\[4\]\[0\]
*956 mult_add_u0\.mult0\.acc\[4\]\[1\]
*957 mult_add_u0\.mult0\.acc\[4\]\[2\]
*958 mult_add_u0\.mult0\.acc\[4\]\[3\]
*959 mult_add_u0\.mult0\.acc\[4\]\[4\]
*960 mult_add_u0\.mult0\.acc\[4\]\[5\]
*961 mult_add_u0\.mult0\.acc\[4\]\[6\]
*962 mult_add_u0\.mult0\.acc\[5\]\[0\]
*963 mult_add_u0\.mult0\.acc\[5\]\[1\]
*964 mult_add_u0\.mult0\.acc\[5\]\[2\]
*965 mult_add_u0\.mult0\.acc\[5\]\[3\]
*966 mult_add_u0\.mult0\.acc\[5\]\[4\]
*967 mult_add_u0\.mult0\.acc\[6\]\[0\]
*968 mult_add_u0\.mult0\.acc\[6\]\[1\]
*969 mult_add_u0\.mult0\.acc\[6\]\[2\]
*970 mult_add_u0\.mult0\.acc\[6\]\[3\]
*971 mult_add_u0\.mult0\.acc_s1\[0\]
*972 mult_add_u0\.mult0\.acc_s1\[1\]
*973 mult_add_u0\.mult0\.acc_s1\[2\]
*974 mult_add_u0\.mult0\.acc_s1\[3\]
*975 mult_add_u0\.mult0\.acc_s1\[4\]
*976 mult_add_u0\.mult0\.acc_s1\[5\]
*977 mult_add_u0\.mult0\.acc_s1\[6\]
*978 mult_add_u0\.mult0\.acc_s2\[0\]
*979 mult_add_u0\.mult0\.acc_s2\[1\]
*980 mult_add_u0\.mult0\.acc_s2\[2\]
*981 mult_add_u0\.mult0\.acc_s2\[3\]
*982 mult_add_u0\.mult0\.acc_s2\[4\]
*983 mult_add_u0\.mult0\.acc_s2\[5\]
*984 mult_add_u0\.mult0\.acc_s2\[6\]
*985 mult_add_u0\.mult0\.acc_s3\[0\]
*986 mult_add_u0\.mult0\.acc_s3\[1\]
*987 mult_add_u0\.mult0\.acc_s3\[2\]
*988 mult_add_u0\.mult0\.acc_s3\[3\]
*989 mult_add_u0\.mult0\.acc_s3\[4\]
*990 mult_add_u0\.mult0\.acc_s3\[5\]
*991 mult_add_u0\.mult0\.acc_s3\[6\]
*992 mult_add_u0\.mult0\.acc_s4\[0\]
*993 mult_add_u0\.mult0\.acc_s4\[1\]
*994 mult_add_u0\.mult0\.acc_s4\[2\]
*995 mult_add_u0\.mult0\.acc_s4\[3\]
*996 mult_add_u0\.mult0\.acc_s4\[4\]
*997 mult_add_u0\.mult0\.acc_s4\[5\]
*998 mult_add_u0\.mult0\.acc_s5\[0\]
*999 mult_add_u0\.mult0\.acc_s5\[1\]
*1000 mult_add_u0\.mult0\.acc_s5\[2\]
*1001 mult_add_u0\.mult0\.acc_s5\[3\]
*1002 mult_add_u0\.mult0\.acc_s5\[4\]
*1003 mult_add_u0\.mult0\.acc_s6\[0\]
*1004 mult_add_u0\.mult0\.acc_s6\[1\]
*1005 mult_add_u0\.mult0\.acc_s6\[2\]
*1006 mult_add_u0\.mult0\.acc_s6\[3\]
*1007 mult_add_u0\.mult0\.mul_sign
*1008 mult_add_u0\.mult0\.mul_sign_s1
*1009 mult_add_u0\.mult0\.mul_sign_s2
*1010 mult_add_u0\.mult0\.mul_sign_s3
*1011 mult_add_u0\.mult0\.mul_sign_s4
*1012 mult_add_u0\.mult0\.mul_sign_s5
*1013 mult_add_u0\.mult0\.mul_sign_s6
*1014 mult_add_u0\.mult0\.multiplicand\[0\]
*1015 mult_add_u0\.mult0\.multiplicand\[1\]
*1016 mult_add_u0\.mult0\.multiplicand\[2\]
*1017 mult_add_u0\.mult0\.multiplicand\[3\]
*1018 mult_add_u0\.mult0\.multiplicand\[4\]
*1019 mult_add_u0\.mult0\.multiplicand\[5\]
*1020 mult_add_u0\.mult0\.multiplicand\[6\]
*1021 mult_add_u0\.mult0\.multiplicand_s1\[0\]
*1022 mult_add_u0\.mult0\.multiplicand_s1\[1\]
*1023 mult_add_u0\.mult0\.multiplicand_s1\[2\]
*1024 mult_add_u0\.mult0\.multiplicand_s1\[3\]
*1025 mult_add_u0\.mult0\.multiplicand_s1\[4\]
*1026 mult_add_u0\.mult0\.multiplicand_s1\[5\]
*1027 mult_add_u0\.mult0\.multiplicand_s1\[6\]
*1028 mult_add_u0\.mult0\.multiplicand_s2\[0\]
*1029 mult_add_u0\.mult0\.multiplicand_s2\[1\]
*1030 mult_add_u0\.mult0\.multiplicand_s2\[2\]
*1031 mult_add_u0\.mult0\.multiplicand_s2\[3\]
*1032 mult_add_u0\.mult0\.multiplicand_s2\[4\]
*1033 mult_add_u0\.mult0\.multiplicand_s2\[5\]
*1034 mult_add_u0\.mult0\.multiplicand_s2\[6\]
*1035 mult_add_u0\.mult0\.multiplicand_s3\[0\]
*1036 mult_add_u0\.mult0\.multiplicand_s3\[1\]
*1037 mult_add_u0\.mult0\.multiplicand_s3\[2\]
*1038 mult_add_u0\.mult0\.multiplicand_s3\[3\]
*1039 mult_add_u0\.mult0\.multiplicand_s3\[4\]
*1040 mult_add_u0\.mult0\.multiplicand_s3\[5\]
*1041 mult_add_u0\.mult0\.multiplicand_s3\[6\]
*1042 mult_add_u0\.mult0\.multiplicand_s4\[0\]
*1043 mult_add_u0\.mult0\.multiplicand_s4\[1\]
*1044 mult_add_u0\.mult0\.multiplicand_s4\[2\]
*1045 mult_add_u0\.mult0\.multiplicand_s4\[3\]
*1046 mult_add_u0\.mult0\.multiplicand_s4\[4\]
*1047 mult_add_u0\.mult0\.multiplicand_s4\[5\]
*1048 mult_add_u0\.mult0\.multiplicand_s5\[0\]
*1049 mult_add_u0\.mult0\.multiplicand_s5\[1\]
*1050 mult_add_u0\.mult0\.multiplicand_s5\[2\]
*1051 mult_add_u0\.mult0\.multiplicand_s5\[3\]
*1052 mult_add_u0\.mult0\.multiplicand_s5\[4\]
*1053 mult_add_u0\.mult0\.multiplicand_s6\[0\]
*1054 mult_add_u0\.mult0\.multiplicand_s6\[1\]
*1055 mult_add_u0\.mult0\.multiplicand_s6\[2\]
*1056 mult_add_u0\.mult0\.multiplicand_s6\[3\]
*1057 mult_add_u0\.mult0\.multiplier\[0\]
*1058 mult_add_u0\.mult0\.multiplier\[1\]
*1059 mult_add_u0\.mult0\.multiplier\[2\]
*1060 mult_add_u0\.mult0\.multiplier\[3\]
*1061 mult_add_u0\.mult0\.multiplier\[4\]
*1062 mult_add_u0\.mult0\.multiplier\[5\]
*1063 mult_add_u0\.mult0\.multiplier\[6\]
*1064 mult_add_u0\.mult0\.product\[3\]
*1065 mult_add_u0\.mult0\.product\[4\]
*1066 mult_add_u0\.mult0\.product\[5\]
*1067 mult_add_u0\.mult0\.product\[6\]
*1068 mult_add_u0\.mult0\.q0\[1\]
*1069 mult_add_u0\.mult0\.q0\[2\]
*1070 mult_add_u0\.mult0\.q0\[3\]
*1071 mult_add_u0\.mult0\.q0\[4\]
*1072 mult_add_u0\.mult0\.q0\[5\]
*1073 mult_add_u0\.mult0\.q0\[6\]
*1074 mult_add_u0\.mult0\.q0_s1
*1075 mult_add_u0\.mult0\.q0_s2
*1076 mult_add_u0\.mult0\.q0_s3
*1077 mult_add_u0\.mult0\.q0_s4
*1078 mult_add_u0\.mult0\.q0_s5
*1079 mult_add_u0\.mult0\.q0_s6
*1080 mult_add_u0\.mult0\.step1\._00_
*1081 mult_add_u0\.mult0\.step1\._01_
*1082 mult_add_u0\.mult0\.step1\._02_
*1083 mult_add_u0\.mult0\.step1\._03_
*1084 mult_add_u0\.mult0\.step1\._04_
*1085 mult_add_u0\.mult0\.step1\._05_
*1086 mult_add_u0\.mult0\.step1\._06_
*1087 mult_add_u0\.mult0\.step1\._07_
*1088 mult_add_u0\.mult0\.step1\.add_sub4_u0\.int_ip\[0\]