*SPEF "ieee 1481-1999"
*DESIGN "DSM_core"
*DATE "11:11:11 Fri 11 11, 1111"
*VENDOR "OpenRCX"
*PROGRAM "Parallel Extraction"
*VERSION "1.0"
*DESIGN_FLOW "NAME_SCOPE LOCAL" "PIN_CAP NONE"
*DIVIDER /
*DELIMITER :
*BUS_DELIMITER []
*T_UNIT 1 NS
*C_UNIT 1 PF
*R_UNIT 1 OHM
*L_UNIT 1 HENRY

*NAME_MAP
*1 clk
*2 i_wb_addr[0]
*3 i_wb_addr[10]
*4 i_wb_addr[11]
*5 i_wb_addr[12]
*6 i_wb_addr[13]
*7 i_wb_addr[14]
*8 i_wb_addr[15]
*9 i_wb_addr[16]
*10 i_wb_addr[17]
*11 i_wb_addr[18]
*12 i_wb_addr[19]
*13 i_wb_addr[1]
*14 i_wb_addr[20]
*15 i_wb_addr[21]
*16 i_wb_addr[22]
*17 i_wb_addr[23]
*18 i_wb_addr[24]
*19 i_wb_addr[25]
*20 i_wb_addr[26]
*21 i_wb_addr[27]
*22 i_wb_addr[28]
*23 i_wb_addr[29]
*24 i_wb_addr[2]
*25 i_wb_addr[30]
*26 i_wb_addr[31]
*27 i_wb_addr[3]
*28 i_wb_addr[4]
*29 i_wb_addr[5]
*30 i_wb_addr[6]
*31 i_wb_addr[7]
*32 i_wb_addr[8]
*33 i_wb_addr[9]
*34 i_wb_cyc
*35 i_wb_data[0]
*36 i_wb_data[1]
*37 i_wb_data[2]
*38 i_wb_data[3]
*39 i_wb_data[4]
*40 i_wb_data[5]
*41 i_wb_data[6]
*42 i_wb_stb
*43 i_wb_we
*44 o_wb_ack
*45 o_wb_data[0]
*46 o_wb_data[1]
*47 o_wb_data[2]
*48 o_wb_data[3]
*49 o_wb_data[4]
*50 net82
*51 reset
*54 _000_
*55 _001_
*56 _002_
*57 _003_
*58 _004_
*59 _005_
*60 _006_
*61 _007_
*62 _008_
*63 _009_
*64 _010_
*65 _011_
*66 _012_
*67 _013_
*68 _014_
*69 _015_
*70 _016_
*71 _017_
*72 _018_
*73 _019_
*74 _020_
*75 _021_
*76 _022_
*77 _023_
*78 _024_
*79 _025_
*80 _026_
*81 _027_
*82 _028_
*83 _029_
*84 _030_
*85 _031_
*86 _032_
*87 _033_
*88 _034_
*89 _035_
*90 _036_
*91 _037_
*92 _038_
*93 _039_
*94 _040_
*95 _041_
*96 _042_
*97 _043_
*98 _044_
*99 _045_
*100 _046_
*101 _047_
*102 _048_
*103 _049_
*104 _050_
*105 _051_
*106 _052_
*107 _053_
*108 _054_
*109 _055_
*110 _056_
*111 _057_
*112 _058_
*113 _059_
*114 _060_
*115 _061_
*116 _062_
*117 _063_
*118 _064_
*119 clknet_0_clk
*120 clknet_2_0__leaf_clk
*121 clknet_2_1__leaf_clk
*122 clknet_2_2__leaf_clk
*123 clknet_2_3__leaf_clk
*124 d1\.Cout
*125 d1\.In_Data\[0\]
*126 d1\.In_Data\[1\]
*127 d1\.In_Data\[2\]
*128 d1\.In_Data\[3\]
*129 d1\.In_Data\[4\]
*130 d1\.In_Data\[5\]
*131 d1\.In_Data\[6\]
*132 d1\.Out_Data\[0\]
*133 d1\.Out_Data\[1\]
*134 d1\.Out_Data\[2\]
*135 d1\.Out_Data\[3\]
*136 d1\.Out_Data\[4\]
*137 d1\.Out_Data\[5\]
*138 d1\.Out_Data\[6\]
*139 d1\.Sum\[0\]
*140 d1\.Sum\[1\]
*141 d1\.Sum\[2\]
*142 d1\.Sum\[3\]
*143 d1\.Sum\[4\]
*144 d1\.Sum\[5\]
*145 d1\.Sum\[6\]
*146 d1\._00_
*147 d1\._01_
*148 d1\._02_
*149 d1\._03_
*150 d1\._04_
*151 d1\._05_
*152 d1\._06_
*153 d1\._07_
*154 d1\._08_
*155 d1\._09_
*156 d1\._10_
*157 d1\._11_
*158 d1\._12_
*159 d1\._13_
*160 d1\._14_
*161 d1\._15_
*162 d1\._16_
*163 d1\._17_
*164 d1\._18_
*165 d1\._19_
*166 d1\._20_
*167 d1\._21_
*168 d1\._22_
*169 d1\._23_
*170 d1\._24_
*171 d1\._25_
*172 d1\._26_
*173 d1\._27_
*174 d1\._28_
*175 d1\._29_
*176 d1\._30_
*177 d1\._31_
*178 d1\._32_
*179 d1\._33_
*180 d1\._34_
*181 d1\._35_
*182 d1\._36_
*183 d1\._37_
*184 d2\.Cout
*185 d2\.Out_Data\[0\]
*186 d2\.Out_Data\[1\]
*187 d2\.Out_Data\[2\]
*188 d2\.Out_Data\[3\]
*189 d2\.Out_Data\[4\]
*190 d2\.Out_Data\[5\]
*191 d2\.Out_Data\[6\]
*192 d2\.Sum\[0\]
*193 d2\.Sum\[1\]
*194 d2\.Sum\[2\]
*195 d2\.Sum\[3\]
*196 d2\.Sum\[4\]
*197 d2\.Sum\[5\]
*198 d2\.Sum\[6\]
*199 d2\._00_
*200 d2\._01_
*201 d2\._02_
*202 d2\._03_
*203 d2\._04_
*204 d2\._05_
*205 d2\._06_
*206 d2\._07_
*207 d2\._08_
*208 d2\._09_
*209 d2\._10_
*210 d2\._11_
*211 d2\._12_
*212 d2\._13_
*213 d2\._14_
*214 d2\._15_
*215 d2\._16_
*216 d2\._17_
*217 d2\._18_
*218 d2\._19_
*219 d2\._20_
*220 d2\._21_
*221 d2\._22_
*222 d2\._23_
*223 d2\._24_
*224 d2\._25_
*225 d2\._26_
*226 d2\._27_
*227 d2\._28_
*228 d2\._29_
*229 d2\._30_
*230 d2\._31_
*231 d2\._32_
*232 d2\._33_
*233 d2\._34_
*234 d2\._35_
*235 d2\._36_
*236 d2\._37_
*237 d3\.Cout
*238 d3\.Out_Data\[0\]
*239 d3\.Out_Data\[1\]
*240 d3\.Out_Data\[2\]
*241 d3\.Out_Data\[3\]
*242 d3\.Out_Data\[4\]
*243 d3\.Out_Data\[5\]
*244 d3\.Out_Data\[6\]
*245 d3\.Sum\[0\]
*246 d3\.Sum\[1\]
*247 d3\.Sum\[2\]
*248 d3\.Sum\[3\]
*249 d3\.Sum\[4\]
*250 d3\.Sum\[5\]
*251 d3\.Sum\[6\]
*252 d3\._00_
*253 d3\._01_
*254 d3\._02_
*255 d3\._03_
*256 d3\._04_
*257 d3\._05_
*258 d3\._06_
*259 d3\._07_
*260 d3\._08_
*261 d3\._09_
*262 d3\._10_
*263 d3\._11_
*264 d3\._12_
*265 d3\._13_
*266 d3\._14_
*267 d3\._15_
*268 d3\._16_
*269 d3\._17_
*270 d3\._18_
*271 d3\._19_
*272 d3\._20_
*273 d3\._21_
*274 d3\._22_
*275 d3\._23_
*276 d3\._24_
*277 d3\._25_
*278 d3\._26_
*279 d3\._27_
*280 d3\._28_
*281 d3\._29_
*282 d3\._30_
*283 d3\._31_
*284 d3\._32_
*285 d3\._33_
*286 d3\._34_
*287 d3\._35_
*288 d3\._36_
*289 d3\._37_
*290 net1
*291 net10
*292 net11
*293 net12
*294 net13
*295 net14
*296 net15
*297 net16
*298 net17
*299 net18
*300 net19
*301 net2
*302 net20
*303 net21
*304 net22
*305 net23
*306 net24
*307 net25
*308 net26
*309 net27
*310 net28
*311 net29
*312 net3
*313 net30
*314 net31
*315 net32
*316 net33
*317 net34
*318 net35
*319 net36
*320 net37
*321 net38
*322 net39
*323 net4
*324 net40
*325 net41
*326 net42
*327 net43
*328 net44
*329 net45
*330 net46
*331 net47
*332 net48
*333 net49
*334 net5
*335 net50
*336 net51
*337 net52
*338 net53
*339 net54
*340 net55
*341 net56
*342 net57
*343 net58
*344 net59
*345 net6
*346 net60
*347 net61
*348 net62
*349 net63
*350 net64
*351 net65
*352 net66
*353 net67
*354 net68
*355 net69
*356 net7
*357 net70
*358 net71
*359 net72
*360 net73
*361 net74
*362 net75
*363 net76
*364 net77
*365 net78
*366 net79
*367 net8
*368 net80
*369 net81
*370 net9
*371 u4\.Data3\[0\]
*372 u4\.Out_Data\[0\]
*373 u4\.Out_Data\[1\]
*374 u4\.Out_Data\[2\]
*375 u4\.Out_Data\[3\]
*376 u4\.Out_Data\[4\]
*377 u4\._00_
*378 u4\._01_
*379 u4\._02_
*380 u4\._03_
*381 u4\._04_
*382 u4\._05_
*383 u4\._06_
*384 u4\._07_
*385 u4\._08_
*386 u4\._09_
*387 u4\._10_
*388 u4\._11_
*389 u4\._12_
*390 u4\._13_
*391 u4\._14_
*392 u4\._15_
*393 u4\._16_
*394 u4\._17_
*395 u4\._18_
*396 u4\._19_
*397 u4\._20_
*398 u4\._21_
*399 u4\._22_
*400 u4\._23_
*401 u4\._24_
*402 u4\._25_
*403 u4\._26_
*404 u4\._27_
*405 u4\._28_
*406 u4\._29_
*407 u4\._30_
*408 u4\._31_
*409 u4\._32_
*410 u5\.Data3\[0\]
*411 u5\.Data3\[1\]
*412 u5\.Data3\[2\]
*413 u5\.Data3\[3\]
*414 u5\.Data3\[4\]
*415 u5\.Out_Data\[0\]
*416 u5\.Out_Data\[1\]
*417 u5\.Out_Data\[2\]
*418 u5\.Out_Data\[3\]
*419 u5\.Out_Data\[4\]
*420 u5\._00_
*421 u5\._01_
*422 u5\._02_
*423 u5\._03_
*424 u5\._04_
*425 u5\._05_
*426 u5\._06_
*427 u5\._07_
*428 u5\._08_
*429 u5\._09_
*430 u5\._10_
*431 u5\._11_
*432 u5\._12_
*433 u5\._13_
*434 u5\._14_
*435 u5\._15_
*436 u5\._16_
*437 u5\._17_
*438 u5\._18_
*439 u5\._19_
*440 u5\._20_
*441 u5\._21_
*442 u5\._22_
*443 u5\._23_
*444 u5\._24_
*445 u5\._25_
*446 u5\._26_
*447 u5\._27_
*448 u5\._28_
*449 u5\._29_
*450 u5\._30_
*451 u5\._31_
*452 u5\._32_
*453 ANTENNA__081__I
*454 ANTENNA__098__A2
*455 ANTENNA__099__A2
*456 ANTENNA__099__A3
*457 ANTENNA__099__A4
*458 ANTENNA__104__A1
*459 ANTENNA__106__A2
*460 ANTENNA__106__B
*461 ANTENNA__107__A1
*462 ANTENNA__111__A2
*463 ANTENNA__111__B
*464 ANTENNA__114__A2
*465 ANTENNA__114__B
*466 ANTENNA__117__A2
*467 ANTENNA__120__A2
*468 ANTENNA__123__A2
*469 ANTENNA__126__A2
*470 ANTENNA__131__A2
*471 ANTENNA__131__A3
*472 ANTENNA__132__A2
*473 ANTENNA__132__B
*474 ANTENNA__133__A1
*475 ANTENNA__134__A2
*476 ANTENNA__134__A3
*477 ANTENNA__135__A2
*478 ANTENNA__135__B
*479 ANTENNA__136__A1
*480 ANTENNA__137__A2
*481 ANTENNA__137__A3
*482 ANTENNA__138__A2
*483 ANTENNA__138__B
*484 ANTENNA__139__A1
*485 ANTENNA__140__A2
*486 ANTENNA__140__A3
*487 ANTENNA__141__A2
*488 ANTENNA__141__B
*489 ANTENNA__142__A1
*490 ANTENNA__143__A2
*491 ANTENNA__143__A3
*492 ANTENNA__144__A2
*493 ANTENNA__144__B
*494 ANTENNA__145__A1
*495 ANTENNA__146__CLK
*496 ANTENNA__147__CLK
*497 ANTENNA__147__RN
*498 ANTENNA__148__CLK
*499 ANTENNA__148__RN
*500 ANTENNA__149__CLK
*501 ANTENNA__149__RN
*502 ANTENNA__150__CLK
*503 ANTENNA__150__RN
*504 ANTENNA__151__CLK
*505 ANTENNA__151__RN
*506 ANTENNA__152__CLK
*507 ANTENNA__152__RN
*508 ANTENNA__153__CLK
*509 ANTENNA__154__CLK
*510 ANTENNA__155__CLK
*511 ANTENNA__156__CLK
*512 ANTENNA__157__CLK
*513 ANTENNA__158__CLK
*514 ANTENNA__159__CLK
*515 ANTENNA__160__CLK
*516 ANTENNA__161__CLK
*517 ANTENNA__162__CLK
*518 ANTENNA__163__CLK
*519 ANTENNA__164__CLK
*520 ANTENNA_clkbuf_0_clk_I
*521 ANTENNA_clkbuf_2_0__f_clk_I
*522 ANTENNA_clkbuf_2_1__f_clk_I
*523 ANTENNA_clkbuf_2_2__f_clk_I
*524 ANTENNA_clkbuf_2_3__f_clk_I
*525 ANTENNA_d1\._38__A2
*526 ANTENNA_d1\._39__A2
*527 ANTENNA_d1\._41__A2
*528 ANTENNA_d1\._42__A2
*529 ANTENNA_d1\._43__A2
*530 ANTENNA_d1\._45__A2
*531 ANTENNA_d1\._48__A2
*532 ANTENNA_d1\._56__C
*533 ANTENNA_d1\._67__A2
*534 ANTENNA_d1\._68__A2
*535 ANTENNA_d1\._79__A2
*536 ANTENNA_d1\._84__CLK
*537 ANTENNA_d1\._84__RN
*538 ANTENNA_d1\._85__CLK
*539 ANTENNA_d1\._85__RN
*540 ANTENNA_d1\._86__CLK
*541 ANTENNA_d1\._86__RN
*542 ANTENNA_d1\._87__CLK
*543 ANTENNA_d1\._87__RN
*544 ANTENNA_d1\._88__CLK
*545 ANTENNA_d1\._88__RN
*546 ANTENNA_d1\._89__CLK
*547 ANTENNA_d1\._89__RN
*548 ANTENNA_d1\._90__CLK
*549 ANTENNA_d1\._90__RN
*550 ANTENNA_d2\._84__CLK
*551 ANTENNA_d2\._84__RN
*552 ANTENNA_d2\._85__CLK
*553 ANTENNA_d2\._85__RN
*554 ANTENNA_d2\._86__CLK
*555 ANTENNA_d2\._86__RN
*556 ANTENNA_d2\._87__CLK
*557 ANTENNA_d2\._87__RN
*558 ANTENNA_d2\._88__CLK
*559 ANTENNA_d2\._88__RN
*560 ANTENNA_d2\._89__CLK
*561 ANTENNA_d2\._89__RN
*562 ANTENNA_d2\._90__CLK
*563 ANTENNA_d2\._90__RN
*564 ANTENNA_d3\._84__CLK
*565 ANTENNA_d3\._84__RN
*566 ANTENNA_d3\._85__CLK
*567 ANTENNA_d3\._85__RN
*568 ANTENNA_d3\._86__CLK
*569 ANTENNA_d3\._86__RN
*570 ANTENNA_d3\._87__CLK
*571 ANTENNA_d3\._87__RN
*572 ANTENNA_d3\._88__CLK
*573 ANTENNA_d3\._88__RN
*574 ANTENNA_d3\._89__CLK
*575 ANTENNA_d3\._89__RN
*576 ANTENNA_d3\._90__CLK
*577 ANTENNA_d3\._90__RN
*578 ANTENNA_fanout44_I
*579 ANTENNA_input10_I
*580 ANTENNA_input11_I
*581 ANTENNA_input12_I
*582 ANTENNA_input13_I
*583 ANTENNA_input14_I
*584 ANTENNA_input15_I
*585 ANTENNA_input16_I
*586 ANTENNA_input17_I
*587 ANTENNA_input18_I
*588 ANTENNA_input19_I
*589 ANTENNA_input1_I
*590 ANTENNA_input20_I
*591 ANTENNA_input21_I
*592 ANTENNA_input22_I
*593 ANTENNA_input23_I
*594 ANTENNA_input24_I
*595 ANTENNA_input25_I
*596 ANTENNA_input26_I
*597 ANTENNA_input27_I
*598 ANTENNA_input28_I
*599 ANTENNA_input29_I
*600 ANTENNA_input2_I
*601 ANTENNA_input30_I
*602 ANTENNA_input31_I
*603 ANTENNA_input32_I
*604 ANTENNA_input33_I
*605 ANTENNA_input34_I
*606 ANTENNA_input35_I
*607 ANTENNA_input36_I
*608 ANTENNA_input37_I
*609 ANTENNA_input38_I
*610 ANTENNA_input39_I
*611 ANTENNA_input3_I
*612 ANTENNA_input40_I
*613 ANTENNA_input41_I
*614 ANTENNA_input42_I
*615 ANTENNA_input43_I
*616 ANTENNA_input4_I
*617 ANTENNA_input5_I
*618 ANTENNA_input6_I
*619 ANTENNA_input7_I
*620 ANTENNA_input8_I
*621 ANTENNA_input9_I
*622 DSM_core_82
*623 FILLER_0_0_104
*624 FILLER_0_0_12
*625 FILLER_0_0_138
*626 FILLER_0_0_16
*627 FILLER_0_0_172
*628 FILLER_0_0_188
*629 FILLER_0_0_192
*630 FILLER_0_0_196
*631 FILLER_0_0_200
*632 FILLER_0_0_206
*633 FILLER_0_0_240
*634 FILLER_0_0_248
*635 FILLER_0_0_252
*636 FILLER_0_0_254
*637 FILLER_0_0_257
*638 FILLER_0_0_265
*639 FILLER_0_0_269
*640 FILLER_0_0_271
*641 FILLER_0_0_274
*642 FILLER_0_0_308
*643 FILLER_0_0_32
*644 FILLER_0_0_324
*645 FILLER_0_0_328
*646 FILLER_0_0_330
*647 FILLER_0_0_36
*648 FILLER_0_0_46
*649 FILLER_0_0_50
*650 FILLER_0_0_66
*651 FILLER_0_0_74
*652 FILLER_0_0_8
*653 FILLER_0_0_90
*654 FILLER_0_0_98
*655 FILLER_0_10_10
*656 FILLER_0_10_101
*657 FILLER_0_10_113
*658 FILLER_0_10_145
*659 FILLER_0_10_161
*660 FILLER_0_10_165
*661 FILLER_0_10_167
*662 FILLER_0_10_174
*663 FILLER_0_10_177
*664 FILLER_0_10_19
*665 FILLER_0_10_193
*666 FILLER_0_10_197
*667 FILLER_0_10_199
*668 FILLER_0_10_224
*669 FILLER_0_10_228
*670 FILLER_0_10_244
*671 FILLER_0_10_247
*672 FILLER_0_10_263
*673 FILLER_0_10_267
*674 FILLER_0_10_276
*675 FILLER_0_10_280
*676 FILLER_0_10_31
*677 FILLER_0_10_312
*678 FILLER_0_10_314
*679 FILLER_0_10_317
*680 FILLER_0_10_325
*681 FILLER_0_10_329
*682 FILLER_0_10_37
*683 FILLER_0_10_8
*684 FILLER_0_11_10
*685 FILLER_0_11_136
*686 FILLER_0_11_14
*687 FILLER_0_11_142
*688 FILLER_0_11_158
*689 FILLER_0_11_166
*690 FILLER_0_11_170
*691 FILLER_0_11_18
*692 FILLER_0_11_2
*693 FILLER_0_11_212
*694 FILLER_0_11_214
*695 FILLER_0_11_274
*696 FILLER_0_11_278
*697 FILLER_0_11_282
*698 FILLER_0_11_314
*699 FILLER_0_11_330
*700 FILLER_0_11_48
*701 FILLER_0_11_52
*702 FILLER_0_11_6
*703 FILLER_0_11_68
*704 FILLER_0_11_72
*705 FILLER_0_12_10
*706 FILLER_0_12_101
*707 FILLER_0_12_107
*708 FILLER_0_12_121
*709 FILLER_0_12_153
*710 FILLER_0_12_169
*711 FILLER_0_12_173
*712 FILLER_0_12_177
*713 FILLER_0_12_19
*714 FILLER_0_12_193
*715 FILLER_0_12_201
*716 FILLER_0_12_205
*717 FILLER_0_12_208
*718 FILLER_0_12_237
*719 FILLER_0_12_247
*720 FILLER_0_12_263
*721 FILLER_0_12_27
*722 FILLER_0_12_271
*723 FILLER_0_12_279
*724 FILLER_0_12_31
*725 FILLER_0_12_311
*726 FILLER_0_12_323
*727 FILLER_0_12_45
*728 FILLER_0_12_49
*729 FILLER_0_12_8
*730 FILLER_0_12_81
*731 FILLER_0_12_97
*732 FILLER_0_13_12
*733 FILLER_0_13_142
*734 FILLER_0_13_146
*735 FILLER_0_13_150
*736 FILLER_0_13_156
*737 FILLER_0_13_16
*738 FILLER_0_13_163
*739 FILLER_0_13_172
*740 FILLER_0_13_204
*741 FILLER_0_13_208
*742 FILLER_0_13_212
*743 FILLER_0_13_220
*744 FILLER_0_13_224
*745 FILLER_0_13_226
*746 FILLER_0_13_233
*747 FILLER_0_13_265
*748 FILLER_0_13_273
*749 FILLER_0_13_277
*750 FILLER_0_13_279
*751 FILLER_0_13_282
*752 FILLER_0_13_298
*753 FILLER_0_13_302
*754 FILLER_0_13_304
*755 FILLER_0_13_328
*756 FILLER_0_13_330
*757 FILLER_0_13_48
*758 FILLER_0_13_64
*759 FILLER_0_13_68
*760 FILLER_0_13_8
*761 FILLER_0_14_10
*762 FILLER_0_14_102
*763 FILLER_0_14_104
*764 FILLER_0_14_107
*765 FILLER_0_14_111
*766 FILLER_0_14_115
*767 FILLER_0_14_131
*768 FILLER_0_14_135
*769 FILLER_0_14_149
*770 FILLER_0_14_151
*771 FILLER_0_14_185
*772 FILLER_0_14_19
*773 FILLER_0_14_225
*774 FILLER_0_14_229
*775 FILLER_0_14_23
*776 FILLER_0_14_231
*777 FILLER_0_14_244
*778 FILLER_0_14_247
*779 FILLER_0_14_255
*780 FILLER_0_14_279
*781 FILLER_0_14_31
*782 FILLER_0_14_311
*783 FILLER_0_14_317
*784 FILLER_0_14_325
*785 FILLER_0_14_329
*786 FILLER_0_14_37
*787 FILLER_0_14_45
*788 FILLER_0_14_78
*789 FILLER_0_14_8
*790 FILLER_0_14_82
*791 FILLER_0_14_86
*792 FILLER_0_14_94
*793 FILLER_0_15_10
*794 FILLER_0_15_133
*795 FILLER_0_15_137
*796 FILLER_0_15_139
*797 FILLER_0_15_142
*798 FILLER_0_15_154
*799 FILLER_0_15_162
*800 FILLER_0_15_171
*801 FILLER_0_15_203
*802 FILLER_0_15_207
*803 FILLER_0_15_209
*804 FILLER_0_15_212
*805 FILLER_0_15_226
*806 FILLER_0_15_234
*807 FILLER_0_15_238
*808 FILLER_0_15_256
*809 FILLER_0_15_279
*810 FILLER_0_15_28
*811 FILLER_0_15_282
*812 FILLER_0_15_286
*813 FILLER_0_15_292
*814 FILLER_0_15_296
*815 FILLER_0_15_316
*816 FILLER_0_15_324
*817 FILLER_0_15_328
*818 FILLER_0_15_330
*819 FILLER_0_15_44
*820 FILLER_0_15_62
*821 FILLER_0_15_72
*822 FILLER_0_15_80
*823 FILLER_0_15_82
*824 FILLER_0_16_10
*825 FILLER_0_16_103
*826 FILLER_0_16_107
*827 FILLER_0_16_115
*828 FILLER_0_16_123
*829 FILLER_0_16_155
*830 FILLER_0_16_171
*831 FILLER_0_16_177
*832 FILLER_0_16_19
*833 FILLER_0_16_193
*834 FILLER_0_16_23
*835 FILLER_0_16_232
*836 FILLER_0_16_240
*837 FILLER_0_16_244
*838 FILLER_0_16_247
*839 FILLER_0_16_255
*840 FILLER_0_16_257
*841 FILLER_0_16_269
*842 FILLER_0_16_27
*843 FILLER_0_16_285
*844 FILLER_0_16_313
*845 FILLER_0_16_325
*846 FILLER_0_16_329
*847 FILLER_0_16_37
*848 FILLER_0_16_45
*849 FILLER_0_16_49
*850 FILLER_0_16_51
*851 FILLER_0_16_54
*852 FILLER_0_16_8
*853 FILLER_0_16_86
*854 FILLER_0_16_88
*855 FILLER_0_16_95
*856 FILLER_0_17_118
*857 FILLER_0_17_122
*858 FILLER_0_17_138
*859 FILLER_0_17_142
*860 FILLER_0_17_206
*861 FILLER_0_17_212
*862 FILLER_0_17_224
*863 FILLER_0_17_256
*864 FILLER_0_17_272
*865 FILLER_0_17_282
*866 FILLER_0_17_290
*867 FILLER_0_17_294
*868 FILLER_0_17_30
*869 FILLER_0_17_315
*870 FILLER_0_17_46
*871 FILLER_0_17_50
*872 FILLER_0_17_60
*873 FILLER_0_17_68
*874 FILLER_0_17_72
*875 FILLER_0_17_76
*876 FILLER_0_17_78
*877 FILLER_0_17_8
*878 FILLER_0_18_107
*879 FILLER_0_18_12
*880 FILLER_0_18_139
*881 FILLER_0_18_14
*882 FILLER_0_18_171
*883 FILLER_0_18_192
*884 FILLER_0_18_224
*885 FILLER_0_18_240
*886 FILLER_0_18_244
*887 FILLER_0_18_247
*888 FILLER_0_18_31
*889 FILLER_0_18_311
*890 FILLER_0_18_317
*891 FILLER_0_18_325
*892 FILLER_0_18_329
*893 FILLER_0_18_37
*894 FILLER_0_18_45
*895 FILLER_0_18_49
*896 FILLER_0_18_8
*897 FILLER_0_18_80
*898 FILLER_0_18_84
*899 FILLER_0_18_97
*900 FILLER_0_19_104
*901 FILLER_0_19_112
*902 FILLER_0_19_116
*903 FILLER_0_19_118
*904 FILLER_0_19_12
*905 FILLER_0_19_124
*906 FILLER_0_19_15
*907 FILLER_0_19_200
*908 FILLER_0_19_208
*909 FILLER_0_19_212
*910 FILLER_0_19_244
*911 FILLER_0_19_248
*912 FILLER_0_19_270
*913 FILLER_0_19_278
*914 FILLER_0_19_282
*915 FILLER_0_19_314
*916 FILLER_0_19_330
*917 FILLER_0_19_43
*918 FILLER_0_19_47
*919 FILLER_0_19_51
*920 FILLER_0_19_63
*921 FILLER_0_19_67
*922 FILLER_0_19_69
*923 FILLER_0_19_72
*924 FILLER_0_19_8
*925 FILLER_0_1_10
*926 FILLER_0_1_115
*927 FILLER_0_1_119
*928 FILLER_0_1_135
*929 FILLER_0_1_139
*930 FILLER_0_1_142
*931 FILLER_0_1_146
*932 FILLER_0_1_148
*933 FILLER_0_1_151
*934 FILLER_0_1_163
*935 FILLER_0_1_179
*936 FILLER_0_1_187
*937 FILLER_0_1_206
*938 FILLER_0_1_212
*939 FILLER_0_1_220
*940 FILLER_0_1_224
*941 FILLER_0_1_226
*942 FILLER_0_1_263
*943 FILLER_0_1_267
*944 FILLER_0_1_271
*945 FILLER_0_1_279
*946 FILLER_0_1_282
*947 FILLER_0_1_314
*948 FILLER_0_1_330
*949 FILLER_0_1_43
*950 FILLER_0_1_45
*951 FILLER_0_1_57
*952 FILLER_0_1_61
*953 FILLER_0_1_69
*954 FILLER_0_1_72
*955 FILLER_0_1_74
*956 FILLER_0_1_77
*957 FILLER_0_1_8
*958 FILLER_0_20_107
*959 FILLER_0_20_171
*960 FILLER_0_20_188
*961 FILLER_0_20_192
*962 FILLER_0_20_2
*963 FILLER_0_20_233
*964 FILLER_0_20_237
*965 FILLER_0_20_279
*966 FILLER_0_20_311
*967 FILLER_0_20_317
*968 FILLER_0_20_325
*969 FILLER_0_20_329
*970 FILLER_0_20_37
*971 FILLER_0_20_41
*972 FILLER_0_21_136
*973 FILLER_0_21_142
*974 FILLER_0_21_206
*975 FILLER_0_21_212
*976 FILLER_0_21_244
*977 FILLER_0_21_252
*978 FILLER_0_21_272
*979 FILLER_0_21_282
*980 FILLER_0_21_314
*981 FILLER_0_21_330
*982 FILLER_0_21_47
*983 FILLER_0_21_63
*984 FILLER_0_21_67
*985 FILLER_0_21_69
*986 FILLER_0_21_72
*987 FILLER_0_21_8
*988 FILLER_0_22_103
*989 FILLER_0_22_107
*990 FILLER_0_22_12
*991 FILLER_0_22_123
*992 FILLER_0_22_129
*993 FILLER_0_22_133
*994 FILLER_0_22_141
*995 FILLER_0_22_149
*996 FILLER_0_22_153
*997 FILLER_0_22_155
*998 FILLER_0_22_162
*999 FILLER_0_22_170
*1000 FILLER_0_22_174
*1001 FILLER_0_22_227
*1002 FILLER_0_22_231
*1003 FILLER_0_22_239
*1004 FILLER_0_22_243
*1005 FILLER_0_22_247
*1006 FILLER_0_22_28
*1007 FILLER_0_22_311
*1008 FILLER_0_22_317
*1009 FILLER_0_22_32
*1010 FILLER_0_22_325
*1011 FILLER_0_22_329
*1012 FILLER_0_22_34
*1013 FILLER_0_22_37
*1014 FILLER_0_22_69
*1015 FILLER_0_22_8
*1016 FILLER_0_22_85
*1017 FILLER_0_22_95
*1018 FILLER_0_23_12
*1019 FILLER_0_23_125
*1020 FILLER_0_23_127
*1021 FILLER_0_23_154
*1022 FILLER_0_23_194
*1023 FILLER_0_23_198
*1024 FILLER_0_23_202
*1025 FILLER_0_23_224
*1026 FILLER_0_23_232
*1027 FILLER_0_23_236
*1028 FILLER_0_23_271
*1029 FILLER_0_23_275
*1030 FILLER_0_23_279
*1031 FILLER_0_23_282
*1032 FILLER_0_23_314
*1033 FILLER_0_23_330
*1034 FILLER_0_23_51
*1035 FILLER_0_23_55
*1036 FILLER_0_23_57
*1037 FILLER_0_23_72
*1038 FILLER_0_23_8
*1039 FILLER_0_23_86
*1040 FILLER_0_23_88
*1041 FILLER_0_24_107
*1042 FILLER_0_24_115
*1043 FILLER_0_24_119
*1044 FILLER_0_24_12
*1045 FILLER_0_24_167
*1046 FILLER_0_24_177
*1047 FILLER_0_24_193
*1048 FILLER_0_24_241
*1049 FILLER_0_24_247
*1050 FILLER_0_24_263
*1051 FILLER_0_24_28
*1052 FILLER_0_24_290
*1053 FILLER_0_24_294
*1054 FILLER_0_24_310
*1055 FILLER_0_24_314
*1056 FILLER_0_24_317
*1057 FILLER_0_24_32
*1058 FILLER_0_24_325
*1059 FILLER_0_24_329
*1060 FILLER_0_24_34
*1061 FILLER_0_24_37
*1062 FILLER_0_24_53
*1063 FILLER_0_24_57
*1064 FILLER_0_24_8
*1065 FILLER_0_25_114
*1066 FILLER_0_25_12
*1067 FILLER_0_25_130
*1068 FILLER_0_25_132
*1069 FILLER_0_25_139
*1070 FILLER_0_25_148
*1071 FILLER_0_25_180
*1072 FILLER_0_25_196
*1073 FILLER_0_25_218
*1074 FILLER_0_25_231
*1075 FILLER_0_25_241
*1076 FILLER_0_25_273
*1077 FILLER_0_25_277
*1078 FILLER_0_25_279
*1079 FILLER_0_25_282
*1080 FILLER_0_25_314
*1081 FILLER_0_25_330
*1082 FILLER_0_25_45
*1083 FILLER_0_25_49
*1084 FILLER_0_25_57
*1085 FILLER_0_25_61
*1086 FILLER_0_25_63
*1087 FILLER_0_25_8
*1088 FILLER_0_25_82
*1089 FILLER_0_26_101
*1090 FILLER_0_26_107
*1091 FILLER_0_26_123
*1092 FILLER_0_26_131
*1093 FILLER_0_26_133
*1094 FILLER_0_26_154
*1095 FILLER_0_26_170
*1096 FILLER_0_26_174
*1097 FILLER_0_26_177
*1098 FILLER_0_26_193
*1099 FILLER_0_26_196
*1100 FILLER_0_26_212
*1101 FILLER_0_26_214
*1102 FILLER_0_26_223
*1103 FILLER_0_26_23
*1104 FILLER_0_26_239
*1105 FILLER_0_26_243
*1106 FILLER_0_26_247
*1107 FILLER_0_26_31
*1108 FILLER_0_26_311
*1109 FILLER_0_26_317
*1110 FILLER_0_26_325
*1111 FILLER_0_26_329
*1112 FILLER_0_26_37
*1113 FILLER_0_26_53
*1114 FILLER_0_26_61
*1115 FILLER_0_26_63
*1116 FILLER_0_26_8
*1117 FILLER_0_26_85
*1118 FILLER_0_27_124
*1119 FILLER_0_27_128
*1120 FILLER_0_27_132
*1121 FILLER_0_27_134
*1122 FILLER_0_27_155
*1123 FILLER_0_27_159
*1124 FILLER_0_27_194
*1125 FILLER_0_27_196
*1126 FILLER_0_27_2
*1127 FILLER_0_27_217
*1128 FILLER_0_27_230
*1129 FILLER_0_27_262
*1130 FILLER_0_27_278
*1131 FILLER_0_27_282
*1132 FILLER_0_27_314
*1133 FILLER_0_27_330
*1134 FILLER_0_27_6
*1135 FILLER_0_27_77
*1136 FILLER_0_27_85
*1137 FILLER_0_27_89
*1138 FILLER_0_28_103
*1139 FILLER_0_28_107
*1140 FILLER_0_28_12
*1141 FILLER_0_28_139
*1142 FILLER_0_28_155
*1143 FILLER_0_28_162
*1144 FILLER_0_28_170
*1145 FILLER_0_28_174
*1146 FILLER_0_28_177
*1147 FILLER_0_28_193
*1148 FILLER_0_28_195
*1149 FILLER_0_28_198
*1150 FILLER_0_28_230
*1151 FILLER_0_28_240
*1152 FILLER_0_28_244
*1153 FILLER_0_28_28
*1154 FILLER_0_28_281
*1155 FILLER_0_28_285
*1156 FILLER_0_28_289
*1157 FILLER_0_28_305
*1158 FILLER_0_28_313
*1159 FILLER_0_28_317
*1160 FILLER_0_28_32
*1161 FILLER_0_28_325
*1162 FILLER_0_28_329
*1163 FILLER_0_28_34
*1164 FILLER_0_28_37
*1165 FILLER_0_28_69
*1166 FILLER_0_28_8
*1167 FILLER_0_28_85
*1168 FILLER_0_28_95
*1169 FILLER_0_29_104
*1170 FILLER_0_29_12
*1171 FILLER_0_29_120
*1172 FILLER_0_29_128
*1173 FILLER_0_29_142
*1174 FILLER_0_29_16
*1175 FILLER_0_29_18
*1176 FILLER_0_29_206
*1177 FILLER_0_29_212
*1178 FILLER_0_29_276
*1179 FILLER_0_29_282
*1180 FILLER_0_29_314
*1181 FILLER_0_29_330
*1182 FILLER_0_29_45
*1183 FILLER_0_29_61
*1184 FILLER_0_29_69
*1185 FILLER_0_29_72
*1186 FILLER_0_29_8
*1187 FILLER_0_2_103
*1188 FILLER_0_2_107
*1189 FILLER_0_2_123
*1190 FILLER_0_2_177
*1191 FILLER_0_2_181
*1192 FILLER_0_2_219
*1193 FILLER_0_2_223
*1194 FILLER_0_2_231
*1195 FILLER_0_2_233
*1196 FILLER_0_2_244
*1197 FILLER_0_2_255
*1198 FILLER_0_2_301
*1199 FILLER_0_2_309
*1200 FILLER_0_2_313
*1201 FILLER_0_2_317
*1202 FILLER_0_2_325
*1203 FILLER_0_2_329
*1204 FILLER_0_2_33
*1205 FILLER_0_2_37
*1206 FILLER_0_2_75
*1207 FILLER_0_2_79
*1208 FILLER_0_2_82
*1209 FILLER_0_2_94
*1210 FILLER_0_30_103
*1211 FILLER_0_30_107
*1212 FILLER_0_30_12
*1213 FILLER_0_30_123
*1214 FILLER_0_30_158
*1215 FILLER_0_30_160
*1216 FILLER_0_30_163
*1217 FILLER_0_30_171
*1218 FILLER_0_30_177
*1219 FILLER_0_30_193
*1220 FILLER_0_30_201
*1221 FILLER_0_30_205
*1222 FILLER_0_30_226
*1223 FILLER_0_30_242
*1224 FILLER_0_30_26
*1225 FILLER_0_30_297
*1226 FILLER_0_30_313
*1227 FILLER_0_30_317
*1228 FILLER_0_30_325
*1229 FILLER_0_30_329
*1230 FILLER_0_30_34
*1231 FILLER_0_30_37
*1232 FILLER_0_30_8
*1233 FILLER_0_30_91
*1234 FILLER_0_30_99
*1235 FILLER_0_31_101
*1236 FILLER_0_31_109
*1237 FILLER_0_31_113
*1238 FILLER_0_31_136
*1239 FILLER_0_31_142
*1240 FILLER_0_31_146
*1241 FILLER_0_31_148
*1242 FILLER_0_31_161
*1243 FILLER_0_31_203
*1244 FILLER_0_31_221
*1245 FILLER_0_31_225
*1246 FILLER_0_31_239
*1247 FILLER_0_31_243
*1248 FILLER_0_31_245
*1249 FILLER_0_31_282
*1250 FILLER_0_31_286
*1251 FILLER_0_31_290
*1252 FILLER_0_31_322
*1253 FILLER_0_31_330
*1254 FILLER_0_31_42
*1255 FILLER_0_31_44
*1256 FILLER_0_31_8
*1257 FILLER_0_31_85
*1258 FILLER_0_32_103
*1259 FILLER_0_32_157
*1260 FILLER_0_32_161
*1261 FILLER_0_32_168
*1262 FILLER_0_32_172
*1263 FILLER_0_32_174
*1264 FILLER_0_32_177
*1265 FILLER_0_32_193
*1266 FILLER_0_32_195
*1267 FILLER_0_32_22
*1268 FILLER_0_32_241
*1269 FILLER_0_32_259
*1270 FILLER_0_32_291
*1271 FILLER_0_32_30
*1272 FILLER_0_32_307
*1273 FILLER_0_32_317
*1274 FILLER_0_32_325
*1275 FILLER_0_32_329
*1276 FILLER_0_32_34
*1277 FILLER_0_32_37
*1278 FILLER_0_32_45
*1279 FILLER_0_32_49
*1280 FILLER_0_32_51
*1281 FILLER_0_32_8
*1282 FILLER_0_32_87
*1283 FILLER_0_33_118
*1284 FILLER_0_33_12
*1285 FILLER_0_33_122
*1286 FILLER_0_33_126
*1287 FILLER_0_33_138
*1288 FILLER_0_33_155
*1289 FILLER_0_33_16
*1290 FILLER_0_33_187
*1291 FILLER_0_33_203
*1292 FILLER_0_33_207
*1293 FILLER_0_33_209
*1294 FILLER_0_33_245
*1295 FILLER_0_33_247
*1296 FILLER_0_33_254
*1297 FILLER_0_33_270
*1298 FILLER_0_33_278
*1299 FILLER_0_33_282
*1300 FILLER_0_33_314
*1301 FILLER_0_33_330
*1302 FILLER_0_33_44
*1303 FILLER_0_33_52
*1304 FILLER_0_33_56
*1305 FILLER_0_33_62
*1306 FILLER_0_33_72
*1307 FILLER_0_33_8
*1308 FILLER_0_34_107
*1309 FILLER_0_34_12
*1310 FILLER_0_34_123
*1311 FILLER_0_34_165
*1312 FILLER_0_34_173
*1313 FILLER_0_34_177
*1314 FILLER_0_34_209
*1315 FILLER_0_34_225
*1316 FILLER_0_34_242
*1317 FILLER_0_34_244
*1318 FILLER_0_34_247
*1319 FILLER_0_34_28
*1320 FILLER_0_34_311
*1321 FILLER_0_34_317
*1322 FILLER_0_34_32
*1323 FILLER_0_34_325
*1324 FILLER_0_34_329
*1325 FILLER_0_34_34
*1326 FILLER_0_34_37
*1327 FILLER_0_34_53
*1328 FILLER_0_34_73
*1329 FILLER_0_34_8
*1330 FILLER_0_35_109
*1331 FILLER_0_35_125
*1332 FILLER_0_35_133
*1333 FILLER_0_35_137
*1334 FILLER_0_35_139
*1335 FILLER_0_35_152
*1336 FILLER_0_35_160
*1337 FILLER_0_35_162
*1338 FILLER_0_35_2
*1339 FILLER_0_35_201
*1340 FILLER_0_35_205
*1341 FILLER_0_35_209
*1342 FILLER_0_35_212
*1343 FILLER_0_35_276
*1344 FILLER_0_35_282
*1345 FILLER_0_35_314
*1346 FILLER_0_35_322
*1347 FILLER_0_35_326
*1348 FILLER_0_35_328
*1349 FILLER_0_35_47
*1350 FILLER_0_35_49
*1351 FILLER_0_35_69
*1352 FILLER_0_35_77
*1353 FILLER_0_36_104
*1354 FILLER_0_36_107
*1355 FILLER_0_36_12
*1356 FILLER_0_36_123
*1357 FILLER_0_36_127
*1358 FILLER_0_36_140
*1359 FILLER_0_36_144
*1360 FILLER_0_36_158
*1361 FILLER_0_36_168
*1362 FILLER_0_36_172
*1363 FILLER_0_36_174
*1364 FILLER_0_36_177
*1365 FILLER_0_36_221
*1366 FILLER_0_36_237
*1367 FILLER_0_36_28
*1368 FILLER_0_36_281
*1369 FILLER_0_36_285
*1370 FILLER_0_36_289
*1371 FILLER_0_36_305
*1372 FILLER_0_36_313
*1373 FILLER_0_36_32
*1374 FILLER_0_36_34
*1375 FILLER_0_36_37
*1376 FILLER_0_36_53
*1377 FILLER_0_36_57
*1378 FILLER_0_36_59
*1379 FILLER_0_36_72
*1380 FILLER_0_36_8
*1381 FILLER_0_37_119
*1382 FILLER_0_37_12
*1383 FILLER_0_37_123
*1384 FILLER_0_37_127
*1385 FILLER_0_37_135
*1386 FILLER_0_37_139
*1387 FILLER_0_37_142
*1388 FILLER_0_37_206
*1389 FILLER_0_37_212
*1390 FILLER_0_37_220
*1391 FILLER_0_37_236
*1392 FILLER_0_37_238
*1393 FILLER_0_37_245
*1394 FILLER_0_37_277
*1395 FILLER_0_37_279
*1396 FILLER_0_37_282
*1397 FILLER_0_37_314
*1398 FILLER_0_37_330
*1399 FILLER_0_37_44
*1400 FILLER_0_37_60
*1401 FILLER_0_37_68
*1402 FILLER_0_37_72
*1403 FILLER_0_37_76
*1404 FILLER_0_37_8
*1405 FILLER_0_38_102
*1406 FILLER_0_38_104
*1407 FILLER_0_38_107
*1408 FILLER_0_38_12
*1409 FILLER_0_38_131
*1410 FILLER_0_38_138
*1411 FILLER_0_38_170
*1412 FILLER_0_38_174
*1413 FILLER_0_38_177
*1414 FILLER_0_38_209
*1415 FILLER_0_38_213
*1416 FILLER_0_38_227
*1417 FILLER_0_38_243
*1418 FILLER_0_38_247
*1419 FILLER_0_38_28
*1420 FILLER_0_38_311
*1421 FILLER_0_38_317
*1422 FILLER_0_38_32
*1423 FILLER_0_38_325
*1424 FILLER_0_38_329
*1425 FILLER_0_38_34
*1426 FILLER_0_38_37
*1427 FILLER_0_38_53
*1428 FILLER_0_38_70
*1429 FILLER_0_38_74
*1430 FILLER_0_38_8
*1431 FILLER_0_38_90
*1432 FILLER_0_38_98
*1433 FILLER_0_39_104
*1434 FILLER_0_39_112
*1435 FILLER_0_39_116
*1436 FILLER_0_39_118
*1437 FILLER_0_39_12
*1438 FILLER_0_39_157
*1439 FILLER_0_39_199
*1440 FILLER_0_39_203
*1441 FILLER_0_39_212
*1442 FILLER_0_39_234
*1443 FILLER_0_39_266
*1444 FILLER_0_39_274
*1445 FILLER_0_39_278
*1446 FILLER_0_39_282
*1447 FILLER_0_39_314
*1448 FILLER_0_39_330
*1449 FILLER_0_39_44
*1450 FILLER_0_39_69
*1451 FILLER_0_39_72
*1452 FILLER_0_39_8
*1453 FILLER_0_3_10
*1454 FILLER_0_3_111
*1455 FILLER_0_3_136
*1456 FILLER_0_3_14
*1457 FILLER_0_3_142
*1458 FILLER_0_3_156
*1459 FILLER_0_3_172
*1460 FILLER_0_3_174
*1461 FILLER_0_3_177
*1462 FILLER_0_3_194
*1463 FILLER_0_3_2
*1464 FILLER_0_3_212
*1465 FILLER_0_3_220
*1466 FILLER_0_3_222
*1467 FILLER_0_3_225
*1468 FILLER_0_3_229
*1469 FILLER_0_3_238
*1470 FILLER_0_3_242
*1471 FILLER_0_3_245
*1472 FILLER_0_3_247
*1473 FILLER_0_3_250
*1474 FILLER_0_3_254
*1475 FILLER_0_3_256
*1476 FILLER_0_3_259
*1477 FILLER_0_3_269
*1478 FILLER_0_3_277
*1479 FILLER_0_3_279
*1480 FILLER_0_3_282
*1481 FILLER_0_3_314
*1482 FILLER_0_3_330
*1483 FILLER_0_3_46
*1484 FILLER_0_3_6
*1485 FILLER_0_3_62
*1486 FILLER_0_3_66
*1487 FILLER_0_3_72
*1488 FILLER_0_3_74
*1489 FILLER_0_3_84
*1490 FILLER_0_3_92
*1491 FILLER_0_3_95
*1492 FILLER_0_40_104
*1493 FILLER_0_40_107
*1494 FILLER_0_40_123
*1495 FILLER_0_40_131
*1496 FILLER_0_40_135
*1497 FILLER_0_40_142
*1498 FILLER_0_40_158
*1499 FILLER_0_40_160
*1500 FILLER_0_40_167
*1501 FILLER_0_40_177
*1502 FILLER_0_40_209
*1503 FILLER_0_40_226
*1504 FILLER_0_40_23
*1505 FILLER_0_40_242
*1506 FILLER_0_40_244
*1507 FILLER_0_40_247
*1508 FILLER_0_40_31
*1509 FILLER_0_40_311
*1510 FILLER_0_40_317
*1511 FILLER_0_40_325
*1512 FILLER_0_40_329
*1513 FILLER_0_40_37
*1514 FILLER_0_40_47
*1515 FILLER_0_40_72
*1516 FILLER_0_40_8
*1517 FILLER_0_41_12
*1518 FILLER_0_41_120
*1519 FILLER_0_41_124
*1520 FILLER_0_41_128
*1521 FILLER_0_41_132
*1522 FILLER_0_41_134
*1523 FILLER_0_41_16
*1524 FILLER_0_41_165
*1525 FILLER_0_41_197
*1526 FILLER_0_41_205
*1527 FILLER_0_41_209
*1528 FILLER_0_41_212
*1529 FILLER_0_41_276
*1530 FILLER_0_41_282
*1531 FILLER_0_41_314
*1532 FILLER_0_41_32
*1533 FILLER_0_41_330
*1534 FILLER_0_41_72