*SPEF "ieee 1481-1999"
*DESIGN "DSM_core"
*DATE "11:11:11 Fri 11 11, 1111"
*VENDOR "OpenRCX"
*PROGRAM "Parallel Extraction"
*VERSION "1.0"
*DESIGN_FLOW "NAME_SCOPE LOCAL" "PIN_CAP NONE"
*DIVIDER /
*DELIMITER :
*BUS_DELIMITER []
*T_UNIT 1 NS
*C_UNIT 1 PF
*R_UNIT 1 OHM
*L_UNIT 1 HENRY

*NAME_MAP
*1 clk
*2 i_wb_addr[0]
*3 i_wb_addr[10]
*4 i_wb_addr[11]
*5 i_wb_addr[12]
*6 i_wb_addr[13]
*7 i_wb_addr[14]
*8 i_wb_addr[15]
*9 i_wb_addr[16]
*10 i_wb_addr[17]
*11 i_wb_addr[18]
*12 i_wb_addr[19]
*13 i_wb_addr[1]
*14 i_wb_addr[20]
*15 i_wb_addr[21]
*16 i_wb_addr[22]
*17 i_wb_addr[23]
*18 i_wb_addr[24]
*19 i_wb_addr[25]
*20 i_wb_addr[26]
*21 i_wb_addr[27]
*22 i_wb_addr[28]
*23 i_wb_addr[29]
*24 i_wb_addr[2]
*25 i_wb_addr[30]
*26 i_wb_addr[31]
*27 i_wb_addr[3]
*28 i_wb_addr[4]
*29 i_wb_addr[5]
*30 i_wb_addr[6]
*31 i_wb_addr[7]
*32 i_wb_addr[8]
*33 i_wb_addr[9]
*34 i_wb_cyc
*35 i_wb_data[0]
*36 i_wb_data[1]
*37 i_wb_data[2]
*38 i_wb_data[3]
*39 i_wb_data[4]
*40 i_wb_data[5]
*41 i_wb_data[6]
*42 i_wb_stb
*43 i_wb_we
*44 o_wb_ack
*45 o_wb_data[0]
*46 o_wb_data[1]
*47 o_wb_data[2]
*48 o_wb_data[3]
*49 o_wb_data[4]
*50 net82
*51 reset
*54 _000_
*55 _001_
*56 _002_
*57 _003_
*58 _004_
*59 _005_
*60 _006_
*61 _007_
*62 _008_
*63 _009_
*64 _010_
*65 _011_
*66 _012_
*67 _013_
*68 _014_
*69 _015_
*70 _016_
*71 _017_
*72 _018_
*73 _019_
*74 _020_
*75 _021_
*76 _022_
*77 _023_
*78 _024_
*79 _025_
*80 _026_
*81 _027_
*82 _028_
*83 _029_
*84 _030_
*85 _031_
*86 _032_
*87 _033_
*88 _034_
*89 _035_
*90 _036_
*91 _037_
*92 _038_
*93 _039_
*94 _040_
*95 _041_
*96 _042_
*97 _043_
*98 _044_
*99 _045_
*100 _046_
*101 _047_
*102 _048_
*103 _049_
*104 _050_
*105 _051_
*106 _052_
*107 _053_
*108 _054_
*109 _055_
*110 _056_
*111 _057_
*112 _058_
*113 clknet_0_clk
*114 clknet_2_0__leaf_clk
*115 clknet_2_1__leaf_clk
*116 clknet_2_2__leaf_clk
*117 clknet_2_3__leaf_clk
*118 d1\.Cout
*119 d1\.In_Data\[0\]
*120 d1\.In_Data\[1\]
*121 d1\.In_Data\[2\]
*122 d1\.In_Data\[3\]
*123 d1\.In_Data\[4\]
*124 d1\.In_Data\[5\]
*125 d1\.In_Data\[6\]
*126 d1\.Out_Data\[0\]
*127 d1\.Out_Data\[1\]
*128 d1\.Out_Data\[2\]
*129 d1\.Out_Data\[3\]
*130 d1\.Out_Data\[4\]
*131 d1\.Out_Data\[5\]
*132 d1\.Out_Data\[6\]
*133 d1\.Sum\[0\]
*134 d1\.Sum\[1\]
*135 d1\.Sum\[2\]
*136 d1\.Sum\[3\]
*137 d1\.Sum\[4\]
*138 d1\.Sum\[5\]
*139 d1\.Sum\[6\]
*140 d1\._00_
*141 d1\._01_
*142 d1\._02_
*143 d1\._03_
*144 d1\._04_
*145 d1\._05_
*146 d1\._06_
*147 d1\._07_
*148 d1\._08_
*149 d1\._09_
*150 d1\._10_
*151 d1\._11_
*152 d1\._12_
*153 d1\._13_
*154 d1\._14_
*155 d1\._15_
*156 d1\._16_
*157 d1\._17_
*158 d1\._18_
*159 d1\._19_
*160 d1\._20_
*161 d1\._21_
*162 d1\._22_
*163 d1\._23_
*164 d1\._24_
*165 d1\._25_
*166 d1\._26_
*167 d1\._27_
*168 d1\._28_
*169 d1\._29_
*170 d1\._30_
*171 d1\._31_
*172 d1\._32_
*173 d1\._33_
*174 d1\._34_
*175 d1\._35_
*176 d1\._36_
*177 d1\._37_
*178 d2\.Cout
*179 d2\.Out_Data\[0\]
*180 d2\.Out_Data\[1\]
*181 d2\.Out_Data\[2\]
*182 d2\.Out_Data\[3\]
*183 d2\.Out_Data\[4\]
*184 d2\.Out_Data\[5\]
*185 d2\.Out_Data\[6\]
*186 d2\.Sum\[0\]
*187 d2\.Sum\[1\]
*188 d2\.Sum\[2\]
*189 d2\.Sum\[3\]
*190 d2\.Sum\[4\]
*191 d2\.Sum\[5\]
*192 d2\.Sum\[6\]
*193 d2\._00_
*194 d2\._01_
*195 d2\._02_
*196 d2\._03_
*197 d2\._04_
*198 d2\._05_
*199 d2\._06_
*200 d2\._07_
*201 d2\._08_
*202 d2\._09_
*203 d2\._10_
*204 d2\._11_
*205 d2\._12_
*206 d2\._13_
*207 d2\._14_
*208 d2\._15_
*209 d2\._16_
*210 d2\._17_
*211 d2\._18_
*212 d2\._19_
*213 d2\._20_
*214 d2\._21_
*215 d2\._22_
*216 d2\._23_
*217 d2\._24_
*218 d2\._25_
*219 d2\._26_
*220 d2\._27_
*221 d2\._28_
*222 d2\._29_
*223 d2\._30_
*224 d2\._31_
*225 d2\._32_
*226 d2\._33_
*227 d2\._34_
*228 d2\._35_
*229 d2\._36_
*230 d2\._37_
*231 d3\.Cout
*232 d3\.Out_Data\[0\]
*233 d3\.Out_Data\[1\]
*234 d3\.Out_Data\[2\]
*235 d3\.Out_Data\[3\]
*236 d3\.Out_Data\[4\]
*237 d3\.Out_Data\[5\]
*238 d3\.Out_Data\[6\]
*239 d3\.Sum\[0\]
*240 d3\.Sum\[1\]
*241 d3\.Sum\[2\]
*242 d3\.Sum\[3\]
*243 d3\.Sum\[4\]
*244 d3\.Sum\[5\]
*245 d3\.Sum\[6\]
*246 d3\._00_
*247 d3\._01_
*248 d3\._02_
*249 d3\._03_
*250 d3\._04_
*251 d3\._05_
*252 d3\._06_
*253 d3\._07_
*254 d3\._08_
*255 d3\._09_
*256 d3\._10_
*257 d3\._11_
*258 d3\._12_
*259 d3\._13_
*260 d3\._14_
*261 d3\._15_
*262 d3\._16_
*263 d3\._17_
*264 d3\._18_
*265 d3\._19_
*266 d3\._20_
*267 d3\._21_
*268 d3\._22_
*269 d3\._23_
*270 d3\._24_
*271 d3\._25_
*272 d3\._26_
*273 d3\._27_
*274 d3\._28_
*275 d3\._29_
*276 d3\._30_
*277 d3\._31_
*278 d3\._32_
*279 d3\._33_
*280 d3\._34_
*281 d3\._35_
*282 d3\._36_
*283 d3\._37_
*284 net1
*285 net10
*286 net11
*287 net12
*288 net13
*289 net14
*290 net15
*291 net16
*292 net17
*293 net18
*294 net19
*295 net2
*296 net20
*297 net21
*298 net22
*299 net23
*300 net24
*301 net25
*302 net26
*303 net27
*304 net28
*305 net29
*306 net3
*307 net30
*308 net31
*309 net32
*310 net33
*311 net34
*312 net35
*313 net36
*314 net37
*315 net38
*316 net39
*317 net4
*318 net40
*319 net41
*320 net42
*321 net43
*322 net44
*323 net45
*324 net46
*325 net47
*326 net48
*327 net49
*328 net5
*329 net50
*330 net51
*331 net52
*332 net53
*333 net54
*334 net55
*335 net56
*336 net57
*337 net58
*338 net59
*339 net6
*340 net60
*341 net61
*342 net62
*343 net63
*344 net64
*345 net65
*346 net66
*347 net67
*348 net68
*349 net69
*350 net7
*351 net70
*352 net71
*353 net72
*354 net73
*355 net74
*356 net75
*357 net76
*358 net77
*359 net78
*360 net79
*361 net8
*362 net80
*363 net81
*364 net9
*365 u4\.Data3\[0\]
*366 u4\.Out_Data\[0\]
*367 u4\.Out_Data\[1\]
*368 u4\.Out_Data\[2\]
*369 u4\.Out_Data\[3\]
*370 u4\.Out_Data\[4\]
*371 u4\._00_
*372 u4\._01_
*373 u4\._02_
*374 u4\._03_
*375 u4\._04_
*376 u4\._05_
*377 u4\._06_
*378 u4\._07_
*379 u4\._08_
*380 u4\._09_
*381 u4\._10_
*382 u4\._11_
*383 u4\._12_
*384 u4\._13_
*385 u4\._14_
*386 u4\._15_
*387 u4\._16_
*388 u4\._17_
*389 u4\._18_
*390 u4\._19_
*391 u4\._20_
*392 u4\._21_
*393 u4\._22_
*394 u4\._23_
*395 u4\._24_
*396 u4\._25_
*397 u4\._26_
*398 u4\._27_
*399 u4\._28_
*400 u4\._29_
*401 u4\._30_
*402 u4\._31_
*403 u4\._32_
*404 u5\.Data3\[0\]
*405 u5\.Data3\[1\]
*406 u5\.Data3\[2\]
*407 u5\.Data3\[3\]
*408 u5\.Data3\[4\]
*409 u5\.Out_Data\[0\]
*410 u5\.Out_Data\[1\]
*411 u5\.Out_Data\[2\]
*412 u5\.Out_Data\[3\]
*413 u5\.Out_Data\[4\]
*414 u5\._00_
*415 u5\._01_
*416 u5\._02_
*417 u5\._03_
*418 u5\._04_
*419 u5\._05_
*420 u5\._06_
*421 u5\._07_
*422 u5\._08_
*423 u5\._09_
*424 u5\._10_
*425 u5\._11_
*426 u5\._12_
*427 u5\._13_
*428 u5\._14_
*429 u5\._15_
*430 u5\._16_
*431 u5\._17_
*432 u5\._18_
*433 u5\._19_
*434 u5\._20_
*435 u5\._21_
*436 u5\._22_
*437 u5\._23_
*438 u5\._24_
*439 u5\._25_
*440 u5\._26_
*441 u5\._27_
*442 u5\._28_
*443 u5\._29_
*444 u5\._30_
*445 u5\._31_
*446 u5\._32_
*447 ANTENNA__075__I
*448 ANTENNA__089__A2
*449 ANTENNA__090__A3
*450 ANTENNA__094__A2
*451 ANTENNA__111__A1
*452 ANTENNA__118__A2
*453 ANTENNA__120__A2
*454 ANTENNA__120__A3
*455 ANTENNA__122__A2
*456 ANTENNA__123__A2
*457 ANTENNA__123__A3
*458 ANTENNA__125__A2
*459 ANTENNA__126__A2
*460 ANTENNA__126__A3
*461 ANTENNA__128__A2
*462 ANTENNA__129__A2
*463 ANTENNA__129__A3
*464 ANTENNA__131__A2
*465 ANTENNA__132__A2
*466 ANTENNA__132__A3
*467 ANTENNA__134__CLK
*468 ANTENNA__135__CLK
*469 ANTENNA__135__RN
*470 ANTENNA__136__CLK
*471 ANTENNA__136__D
*472 ANTENNA__136__RN
*473 ANTENNA__137__CLK
*474 ANTENNA__137__RN
*475 ANTENNA__138__CLK
*476 ANTENNA__138__RN
*477 ANTENNA__139__CLK
*478 ANTENNA__139__RN
*479 ANTENNA__140__CLK
*480 ANTENNA__140__RN
*481 ANTENNA__141__CLK
*482 ANTENNA__142__CLK
*483 ANTENNA__143__CLK
*484 ANTENNA__144__CLK
*485 ANTENNA__145__CLK
*486 ANTENNA__146__CLK
*487 ANTENNA__147__CLK
*488 ANTENNA__148__CLK
*489 ANTENNA__149__CLK
*490 ANTENNA__150__CLK
*491 ANTENNA__151__CLK
*492 ANTENNA__152__CLK
*493 ANTENNA_clkbuf_0_clk_I
*494 ANTENNA_clkbuf_2_0__f_clk_I
*495 ANTENNA_clkbuf_2_1__f_clk_I
*496 ANTENNA_clkbuf_2_2__f_clk_I
*497 ANTENNA_clkbuf_2_3__f_clk_I
*498 ANTENNA_d1\._64__A2
*499 ANTENNA_d1\._74__A2
*500 ANTENNA_d1\._76__A2
*501 ANTENNA_d1\._84__CLK
*502 ANTENNA_d1\._84__RN
*503 ANTENNA_d1\._85__CLK
*504 ANTENNA_d1\._85__RN
*505 ANTENNA_d1\._86__CLK
*506 ANTENNA_d1\._86__RN
*507 ANTENNA_d1\._87__CLK
*508 ANTENNA_d1\._87__RN
*509 ANTENNA_d1\._88__CLK
*510 ANTENNA_d1\._88__RN
*511 ANTENNA_d1\._89__CLK
*512 ANTENNA_d1\._89__RN
*513 ANTENNA_d1\._90__CLK
*514 ANTENNA_d1\._90__RN
*515 ANTENNA_d2\._84__CLK
*516 ANTENNA_d2\._84__RN
*517 ANTENNA_d2\._85__CLK
*518 ANTENNA_d2\._85__RN
*519 ANTENNA_d2\._86__CLK
*520 ANTENNA_d2\._86__RN
*521 ANTENNA_d2\._87__CLK
*522 ANTENNA_d2\._87__RN
*523 ANTENNA_d2\._88__CLK
*524 ANTENNA_d2\._88__RN
*525 ANTENNA_d2\._89__CLK
*526 ANTENNA_d2\._89__RN
*527 ANTENNA_d2\._90__CLK
*528 ANTENNA_d2\._90__RN
*529 ANTENNA_d3\._84__CLK
*530 ANTENNA_d3\._84__RN
*531 ANTENNA_d3\._85__CLK
*532 ANTENNA_d3\._85__RN
*533 ANTENNA_d3\._86__CLK
*534 ANTENNA_d3\._86__RN
*535 ANTENNA_d3\._87__CLK
*536 ANTENNA_d3\._87__RN
*537 ANTENNA_d3\._88__CLK
*538 ANTENNA_d3\._88__RN
*539 ANTENNA_d3\._89__CLK
*540 ANTENNA_d3\._89__RN
*541 ANTENNA_d3\._90__CLK
*542 ANTENNA_d3\._90__RN
*543 ANTENNA_fanout44_I
*544 ANTENNA_input10_I
*545 ANTENNA_input11_I
*546 ANTENNA_input12_I
*547 ANTENNA_input13_I
*548 ANTENNA_input14_I
*549 ANTENNA_input15_I
*550 ANTENNA_input16_I
*551 ANTENNA_input17_I
*552 ANTENNA_input18_I
*553 ANTENNA_input19_I
*554 ANTENNA_input1_I
*555 ANTENNA_input20_I
*556 ANTENNA_input21_I
*557 ANTENNA_input22_I
*558 ANTENNA_input23_I
*559 ANTENNA_input24_I
*560 ANTENNA_input25_I
*561 ANTENNA_input26_I
*562 ANTENNA_input27_I
*563 ANTENNA_input28_I
*564 ANTENNA_input29_I
*565 ANTENNA_input2_I
*566 ANTENNA_input30_I
*567 ANTENNA_input31_I
*568 ANTENNA_input32_I
*569 ANTENNA_input33_I
*570 ANTENNA_input34_I
*571 ANTENNA_input35_I
*572 ANTENNA_input36_I
*573 ANTENNA_input37_I
*574 ANTENNA_input38_I
*575 ANTENNA_input39_I
*576 ANTENNA_input3_I
*577 ANTENNA_input40_I
*578 ANTENNA_input41_I
*579 ANTENNA_input42_I
*580 ANTENNA_input43_I
*581 ANTENNA_input4_I
*582 ANTENNA_input5_I
*583 ANTENNA_input6_I
*584 ANTENNA_input7_I
*585 ANTENNA_input8_I
*586 ANTENNA_input9_I
*587 ANTENNA_u5\._36__A1
*588 ANTENNA_u5\._69__A1
*589 DSM_core_82
*590 FILLER_0_0_104
*591 FILLER_0_0_106
*592 FILLER_0_0_113
*593 FILLER_0_0_121
*594 FILLER_0_0_129
*595 FILLER_0_0_138
*596 FILLER_0_0_145
*597 FILLER_0_0_153
*598 FILLER_0_0_161
*599 FILLER_0_0_169
*600 FILLER_0_0_17
*601 FILLER_0_0_178
*602 FILLER_0_0_185
*603 FILLER_0_0_193
*604 FILLER_0_0_2
*605 FILLER_0_0_201
*606 FILLER_0_0_203
*607 FILLER_0_0_218
*608 FILLER_0_0_225
*609 FILLER_0_0_233
*610 FILLER_0_0_237
*611 FILLER_0_0_25
*612 FILLER_0_0_258
*613 FILLER_0_0_265
*614 FILLER_0_0_269
*615 FILLER_0_0_271
*616 FILLER_0_0_298
*617 FILLER_0_0_305
*618 FILLER_0_0_314
*619 FILLER_0_0_316
*620 FILLER_0_0_33
*621 FILLER_0_0_42
*622 FILLER_0_0_49
*623 FILLER_0_0_70
*624 FILLER_0_0_72
*625 FILLER_0_0_81
*626 FILLER_0_0_89
*627 FILLER_0_10_101
*628 FILLER_0_10_107
*629 FILLER_0_10_142
*630 FILLER_0_10_146
*631 FILLER_0_10_154
*632 FILLER_0_10_156
*633 FILLER_0_10_163
*634 FILLER_0_10_171
*635 FILLER_0_10_177
*636 FILLER_0_10_2
*637 FILLER_0_10_241
*638 FILLER_0_10_247
*639 FILLER_0_10_279
*640 FILLER_0_10_297
*641 FILLER_0_10_313
*642 FILLER_0_10_317
*643 FILLER_0_10_325
*644 FILLER_0_10_34
*645 FILLER_0_10_45
*646 FILLER_0_10_49
*647 FILLER_0_10_81
*648 FILLER_0_10_85
*649 FILLER_0_11_137
*650 FILLER_0_11_139
*651 FILLER_0_11_142
*652 FILLER_0_11_155
*653 FILLER_0_11_195
*654 FILLER_0_11_199
*655 FILLER_0_11_2
*656 FILLER_0_11_207
*657 FILLER_0_11_209
*658 FILLER_0_11_212
*659 FILLER_0_11_228
*660 FILLER_0_11_232
*661 FILLER_0_11_269
*662 FILLER_0_11_273
*663 FILLER_0_11_277
*664 FILLER_0_11_279
*665 FILLER_0_11_294
*666 FILLER_0_11_296
*667 FILLER_0_11_49
*668 FILLER_0_11_53
*669 FILLER_0_11_69
*670 FILLER_0_11_80
*671 FILLER_0_11_84
*672 FILLER_0_11_86
*673 FILLER_0_12_119
*674 FILLER_0_12_140
*675 FILLER_0_12_151
*676 FILLER_0_12_167
*677 FILLER_0_12_177
*678 FILLER_0_12_193
*679 FILLER_0_12_197
*680 FILLER_0_12_2
*681 FILLER_0_12_211
*682 FILLER_0_12_225
*683 FILLER_0_12_235
*684 FILLER_0_12_243
*685 FILLER_0_12_247
*686 FILLER_0_12_255
*687 FILLER_0_12_259
*688 FILLER_0_12_313
*689 FILLER_0_12_317
*690 FILLER_0_12_325
*691 FILLER_0_12_329
*692 FILLER_0_12_34
*693 FILLER_0_12_45
*694 FILLER_0_12_61
*695 FILLER_0_12_69
*696 FILLER_0_12_73
*697 FILLER_0_12_82
*698 FILLER_0_12_90
*699 FILLER_0_12_94
*700 FILLER_0_13_129
*701 FILLER_0_13_138
*702 FILLER_0_13_154
*703 FILLER_0_13_186
*704 FILLER_0_13_202
*705 FILLER_0_13_222
*706 FILLER_0_13_254
*707 FILLER_0_13_270
*708 FILLER_0_13_278
*709 FILLER_0_13_282
*710 FILLER_0_13_284
*711 FILLER_0_13_308
*712 FILLER_0_13_324
*713 FILLER_0_13_328
*714 FILLER_0_13_330
*715 FILLER_0_13_38
*716 FILLER_0_13_42
*717 FILLER_0_13_58
*718 FILLER_0_13_66
*719 FILLER_0_13_72
*720 FILLER_0_13_76
*721 FILLER_0_13_78
*722 FILLER_0_13_87
*723 FILLER_0_13_95
*724 FILLER_0_14_104
*725 FILLER_0_14_107
*726 FILLER_0_14_115
*727 FILLER_0_14_117
*728 FILLER_0_14_128
*729 FILLER_0_14_144
*730 FILLER_0_14_148
*731 FILLER_0_14_150
*732 FILLER_0_14_157
*733 FILLER_0_14_173
*734 FILLER_0_14_177
*735 FILLER_0_14_18
*736 FILLER_0_14_193
*737 FILLER_0_14_2
*738 FILLER_0_14_230
*739 FILLER_0_14_238
*740 FILLER_0_14_242
*741 FILLER_0_14_244
*742 FILLER_0_14_247
*743 FILLER_0_14_26
*744 FILLER_0_14_263
*745 FILLER_0_14_271
*746 FILLER_0_14_310
*747 FILLER_0_14_314
*748 FILLER_0_14_317
*749 FILLER_0_14_325
*750 FILLER_0_14_329
*751 FILLER_0_14_33
*752 FILLER_0_14_37
*753 FILLER_0_14_53
*754 FILLER_0_14_61
*755 FILLER_0_14_92
*756 FILLER_0_14_96
*757 FILLER_0_15_136
*758 FILLER_0_15_142
*759 FILLER_0_15_146
*760 FILLER_0_15_148
*761 FILLER_0_15_187
*762 FILLER_0_15_191
*763 FILLER_0_15_2
*764 FILLER_0_15_209
*765 FILLER_0_15_212
*766 FILLER_0_15_230
*767 FILLER_0_15_25
*768 FILLER_0_15_262
*769 FILLER_0_15_266
*770 FILLER_0_15_279
*771 FILLER_0_15_29
*772 FILLER_0_15_300
*773 FILLER_0_15_313
*774 FILLER_0_15_329
*775 FILLER_0_15_38
*776 FILLER_0_15_42
*777 FILLER_0_15_58
*778 FILLER_0_15_66
*779 FILLER_0_15_72
*780 FILLER_0_16_103
*781 FILLER_0_16_107
*782 FILLER_0_16_112
*783 FILLER_0_16_144
*784 FILLER_0_16_160
*785 FILLER_0_16_168
*786 FILLER_0_16_172
*787 FILLER_0_16_174
*788 FILLER_0_16_177
*789 FILLER_0_16_18
*790 FILLER_0_16_185
*791 FILLER_0_16_189
*792 FILLER_0_16_2
*793 FILLER_0_16_22
*794 FILLER_0_16_229
*795 FILLER_0_16_247
*796 FILLER_0_16_255
*797 FILLER_0_16_259
*798 FILLER_0_16_261
*799 FILLER_0_16_304
*800 FILLER_0_16_306
*801 FILLER_0_16_313
*802 FILLER_0_16_317
*803 FILLER_0_16_325
*804 FILLER_0_16_33
*805 FILLER_0_16_43
*806 FILLER_0_16_75
*807 FILLER_0_16_91
*808 FILLER_0_16_99
*809 FILLER_0_17_118
*810 FILLER_0_17_122
*811 FILLER_0_17_132
*812 FILLER_0_17_142
*813 FILLER_0_17_150
*814 FILLER_0_17_18
*815 FILLER_0_17_182
*816 FILLER_0_17_190
*817 FILLER_0_17_194
*818 FILLER_0_17_196
*819 FILLER_0_17_2
*820 FILLER_0_17_225
*821 FILLER_0_17_26
*822 FILLER_0_17_265
*823 FILLER_0_17_269
*824 FILLER_0_17_290
*825 FILLER_0_17_294
*826 FILLER_0_17_30
*827 FILLER_0_17_32
*828 FILLER_0_17_35
*829 FILLER_0_17_39
*830 FILLER_0_17_41
*831 FILLER_0_17_54
*832 FILLER_0_17_58
*833 FILLER_0_17_66
*834 FILLER_0_17_72
*835 FILLER_0_17_76
*836 FILLER_0_17_92
*837 FILLER_0_17_96
*838 FILLER_0_18_159
*839 FILLER_0_18_177
*840 FILLER_0_18_2
*841 FILLER_0_18_209
*842 FILLER_0_18_217
*843 FILLER_0_18_221
*844 FILLER_0_18_229
*845 FILLER_0_18_247
*846 FILLER_0_18_263
*847 FILLER_0_18_269
*848 FILLER_0_18_301
*849 FILLER_0_18_309
*850 FILLER_0_18_313
*851 FILLER_0_18_317
*852 FILLER_0_18_325
*853 FILLER_0_18_329
*854 FILLER_0_18_34
*855 FILLER_0_18_37
*856 FILLER_0_18_72
*857 FILLER_0_18_78
*858 FILLER_0_18_82
*859 FILLER_0_18_90
*860 FILLER_0_19_118
*861 FILLER_0_19_134
*862 FILLER_0_19_138
*863 FILLER_0_19_142
*864 FILLER_0_19_146
*865 FILLER_0_19_181
*866 FILLER_0_19_185
*867 FILLER_0_19_189
*868 FILLER_0_19_198
*869 FILLER_0_19_206
*870 FILLER_0_19_224
*871 FILLER_0_19_256
*872 FILLER_0_19_272
*873 FILLER_0_19_282
*874 FILLER_0_19_314
*875 FILLER_0_19_330
*876 FILLER_0_19_38
*877 FILLER_0_19_42
*878 FILLER_0_19_58
*879 FILLER_0_19_66
*880 FILLER_0_19_72
*881 FILLER_0_19_88
*882 FILLER_0_19_96
*883 FILLER_0_19_98
*884 FILLER_0_1_10
*885 FILLER_0_1_154
*886 FILLER_0_1_192
*887 FILLER_0_1_196
*888 FILLER_0_1_200
*889 FILLER_0_1_204
*890 FILLER_0_1_208
*891 FILLER_0_1_216
*892 FILLER_0_1_251
*893 FILLER_0_1_271
*894 FILLER_0_1_275
*895 FILLER_0_1_279
*896 FILLER_0_1_44
*897 FILLER_0_1_50
*898 FILLER_0_1_54
*899 FILLER_0_1_58
*900 FILLER_0_1_62
*901 FILLER_0_1_72
*902 FILLER_0_1_74
*903 FILLER_0_1_8
*904 FILLER_0_20_10
*905 FILLER_0_20_101
*906 FILLER_0_20_107
*907 FILLER_0_20_12
*908 FILLER_0_20_171
*909 FILLER_0_20_2
*910 FILLER_0_20_227
*911 FILLER_0_20_231
*912 FILLER_0_20_239
*913 FILLER_0_20_243
*914 FILLER_0_20_247
*915 FILLER_0_20_263
*916 FILLER_0_20_271
*917 FILLER_0_20_28
*918 FILLER_0_20_285
*919 FILLER_0_20_301
*920 FILLER_0_20_309
*921 FILLER_0_20_313
*922 FILLER_0_20_317
*923 FILLER_0_20_32
*924 FILLER_0_20_325
*925 FILLER_0_20_34
*926 FILLER_0_20_37
*927 FILLER_0_20_53
*928 FILLER_0_20_77
*929 FILLER_0_20_93
*930 FILLER_0_21_110
*931 FILLER_0_21_126
*932 FILLER_0_21_142
*933 FILLER_0_21_174
*934 FILLER_0_21_18
*935 FILLER_0_21_182
*936 FILLER_0_21_186
*937 FILLER_0_21_2
*938 FILLER_0_21_209
*939 FILLER_0_21_212
*940 FILLER_0_21_214
*941 FILLER_0_21_255
*942 FILLER_0_21_259
*943 FILLER_0_21_26
*944 FILLER_0_21_263
*945 FILLER_0_21_277
*946 FILLER_0_21_279
*947 FILLER_0_21_282
*948 FILLER_0_21_286
*949 FILLER_0_21_327
*950 FILLER_0_21_36
*951 FILLER_0_21_40
*952 FILLER_0_21_56
*953 FILLER_0_21_65
*954 FILLER_0_21_69
*955 FILLER_0_21_78
*956 FILLER_0_22_122
*957 FILLER_0_22_130
*958 FILLER_0_22_134
*959 FILLER_0_22_173
*960 FILLER_0_22_177
*961 FILLER_0_22_181
*962 FILLER_0_22_185
*963 FILLER_0_22_2
*964 FILLER_0_22_226
*965 FILLER_0_22_242
*966 FILLER_0_22_244
*967 FILLER_0_22_247
*968 FILLER_0_22_263
*969 FILLER_0_22_267
*970 FILLER_0_22_282
*971 FILLER_0_22_314
*972 FILLER_0_22_317
*973 FILLER_0_22_325
*974 FILLER_0_22_329
*975 FILLER_0_22_34
*976 FILLER_0_22_37
*977 FILLER_0_22_45
*978 FILLER_0_22_53
*979 FILLER_0_22_57
*980 FILLER_0_22_81
*981 FILLER_0_22_97
*982 FILLER_0_23_122
*983 FILLER_0_23_126
*984 FILLER_0_23_128
*985 FILLER_0_23_131
*986 FILLER_0_23_139
*987 FILLER_0_23_142
*988 FILLER_0_23_174
*989 FILLER_0_23_202
*990 FILLER_0_23_212
*991 FILLER_0_23_244
*992 FILLER_0_23_260
*993 FILLER_0_23_268
*994 FILLER_0_23_275
*995 FILLER_0_23_279
*996 FILLER_0_23_282
*997 FILLER_0_23_314
*998 FILLER_0_23_330
*999 FILLER_0_23_38
*1000 FILLER_0_23_42
*1001 FILLER_0_23_58
*1002 FILLER_0_23_72
*1003 FILLER_0_23_81
*1004 FILLER_0_23_89
*1005 FILLER_0_23_91
*1006 FILLER_0_24_10
*1007 FILLER_0_24_103
*1008 FILLER_0_24_112
*1009 FILLER_0_24_120
*1010 FILLER_0_24_122
*1011 FILLER_0_24_129
*1012 FILLER_0_24_14
*1013 FILLER_0_24_165
*1014 FILLER_0_24_169
*1015 FILLER_0_24_173
*1016 FILLER_0_24_177
*1017 FILLER_0_24_179
*1018 FILLER_0_24_198
*1019 FILLER_0_24_2
*1020 FILLER_0_24_200
*1021 FILLER_0_24_213
*1022 FILLER_0_24_247
*1023 FILLER_0_24_255
*1024 FILLER_0_24_305
*1025 FILLER_0_24_31
*1026 FILLER_0_24_313
*1027 FILLER_0_24_317
*1028 FILLER_0_24_325
*1029 FILLER_0_24_329
*1030 FILLER_0_24_37
*1031 FILLER_0_24_69
*1032 FILLER_0_24_79
*1033 FILLER_0_24_95
*1034 FILLER_0_25_134
*1035 FILLER_0_25_138
*1036 FILLER_0_25_142
*1037 FILLER_0_25_174
*1038 FILLER_0_25_18
*1039 FILLER_0_25_190
*1040 FILLER_0_25_196
*1041 FILLER_0_25_2
*1042 FILLER_0_25_204
*1043 FILLER_0_25_208
*1044 FILLER_0_25_212
*1045 FILLER_0_25_214
*1046 FILLER_0_25_221
*1047 FILLER_0_25_253
*1048 FILLER_0_25_255
*1049 FILLER_0_25_26
*1050 FILLER_0_25_278
*1051 FILLER_0_25_282
*1052 FILLER_0_25_30
*1053 FILLER_0_25_314
*1054 FILLER_0_25_330
*1055 FILLER_0_25_41
*1056 FILLER_0_25_45
*1057 FILLER_0_25_47
*1058 FILLER_0_25_54
*1059 FILLER_0_25_72
*1060 FILLER_0_25_80
*1061 FILLER_0_26_107
*1062 FILLER_0_26_171
*1063 FILLER_0_26_177
*1064 FILLER_0_26_18
*1065 FILLER_0_26_2
*1066 FILLER_0_26_247
*1067 FILLER_0_26_251
*1068 FILLER_0_26_255
*1069 FILLER_0_26_259
*1070 FILLER_0_26_26
*1071 FILLER_0_26_261
*1072 FILLER_0_26_274
*1073 FILLER_0_26_30
*1074 FILLER_0_26_306
*1075 FILLER_0_26_314
*1076 FILLER_0_26_317
*1077 FILLER_0_26_32
*1078 FILLER_0_26_325
*1079 FILLER_0_26_329
*1080 FILLER_0_26_44
*1081 FILLER_0_26_48
*1082 FILLER_0_26_56
*1083 FILLER_0_26_60
*1084 FILLER_0_26_73
*1085 FILLER_0_27_110
*1086 FILLER_0_27_135
*1087 FILLER_0_27_139
*1088 FILLER_0_27_142
*1089 FILLER_0_27_158
*1090 FILLER_0_27_166
*1091 FILLER_0_27_168
*1092 FILLER_0_27_193
*1093 FILLER_0_27_209
*1094 FILLER_0_27_212
*1095 FILLER_0_27_216
*1096 FILLER_0_27_275
*1097 FILLER_0_27_279
*1098 FILLER_0_27_282
*1099 FILLER_0_27_314
*1100 FILLER_0_27_330
*1101 FILLER_0_27_45
*1102 FILLER_0_27_49
*1103 FILLER_0_27_65
*1104 FILLER_0_27_69
*1105 FILLER_0_27_72
*1106 FILLER_0_27_78
*1107 FILLER_0_28_10
*1108 FILLER_0_28_102
*1109 FILLER_0_28_104
*1110 FILLER_0_28_107
*1111 FILLER_0_28_115
*1112 FILLER_0_28_14
*1113 FILLER_0_28_159
*1114 FILLER_0_28_163
*1115 FILLER_0_28_171
*1116 FILLER_0_28_183
*1117 FILLER_0_28_191
*1118 FILLER_0_28_2
*1119 FILLER_0_28_226
*1120 FILLER_0_28_230
*1121 FILLER_0_28_234
*1122 FILLER_0_28_242
*1123 FILLER_0_28_244
*1124 FILLER_0_28_247
*1125 FILLER_0_28_291
*1126 FILLER_0_28_295
*1127 FILLER_0_28_311
*1128 FILLER_0_28_317
*1129 FILLER_0_28_325
*1130 FILLER_0_28_329
*1131 FILLER_0_28_37
*1132 FILLER_0_28_41
*1133 FILLER_0_28_45
*1134 FILLER_0_28_49
*1135 FILLER_0_28_56
*1136 FILLER_0_28_72
*1137 FILLER_0_28_80
*1138 FILLER_0_28_84
*1139 FILLER_0_28_98
*1140 FILLER_0_29_101
*1141 FILLER_0_29_109
*1142 FILLER_0_29_111
*1143 FILLER_0_29_135
*1144 FILLER_0_29_139
*1145 FILLER_0_29_142
*1146 FILLER_0_29_158
*1147 FILLER_0_29_166
*1148 FILLER_0_29_18
*1149 FILLER_0_29_188
*1150 FILLER_0_29_190
*1151 FILLER_0_29_197
*1152 FILLER_0_29_2
*1153 FILLER_0_29_205
*1154 FILLER_0_29_209
*1155 FILLER_0_29_212
*1156 FILLER_0_29_22
*1157 FILLER_0_29_276
*1158 FILLER_0_29_282
*1159 FILLER_0_29_31
*1160 FILLER_0_29_314
*1161 FILLER_0_29_330
*1162 FILLER_0_29_35
*1163 FILLER_0_29_43
*1164 FILLER_0_29_47
*1165 FILLER_0_29_55
*1166 FILLER_0_29_63
*1167 FILLER_0_29_67
*1168 FILLER_0_29_69
*1169 FILLER_0_29_72
*1170 FILLER_0_2_107
*1171 FILLER_0_2_134
*1172 FILLER_0_2_2
*1173 FILLER_0_2_20
*1174 FILLER_0_2_238
*1175 FILLER_0_2_242
*1176 FILLER_0_2_244
*1177 FILLER_0_2_284
*1178 FILLER_0_2_288
*1179 FILLER_0_2_292
*1180 FILLER_0_2_296
*1181 FILLER_0_2_300
*1182 FILLER_0_2_304
*1183 FILLER_0_2_308
*1184 FILLER_0_2_312
*1185 FILLER_0_2_314
*1186 FILLER_0_2_323
*1187 FILLER_0_2_327
*1188 FILLER_0_2_34
*1189 FILLER_0_2_37
*1190 FILLER_0_2_39
*1191 FILLER_0_30_102
*1192 FILLER_0_30_104
*1193 FILLER_0_30_107
*1194 FILLER_0_30_115
*1195 FILLER_0_30_119
*1196 FILLER_0_30_130
*1197 FILLER_0_30_146
*1198 FILLER_0_30_154
*1199 FILLER_0_30_158
*1200 FILLER_0_30_165
*1201 FILLER_0_30_173
*1202 FILLER_0_30_177
*1203 FILLER_0_30_2
*1204 FILLER_0_30_209
*1205 FILLER_0_30_240
*1206 FILLER_0_30_244
*1207 FILLER_0_30_247
*1208 FILLER_0_30_311
*1209 FILLER_0_30_317
*1210 FILLER_0_30_325
*1211 FILLER_0_30_329
*1212 FILLER_0_30_34
*1213 FILLER_0_30_37
*1214 FILLER_0_30_69
*1215 FILLER_0_30_73
*1216 FILLER_0_30_75
*1217 FILLER_0_30_98
*1218 FILLER_0_31_119
*1219 FILLER_0_31_135
*1220 FILLER_0_31_139
*1221 FILLER_0_31_142
*1222 FILLER_0_31_150
*1223 FILLER_0_31_158
*1224 FILLER_0_31_190
*1225 FILLER_0_31_206
*1226 FILLER_0_31_212
*1227 FILLER_0_31_256
*1228 FILLER_0_31_272
*1229 FILLER_0_31_282
*1230 FILLER_0_31_314
*1231 FILLER_0_31_330
*1232 FILLER_0_31_38
*1233 FILLER_0_31_65
*1234 FILLER_0_31_69
*1235 FILLER_0_31_72
*1236 FILLER_0_31_80
*1237 FILLER_0_31_87
*1238 FILLER_0_32_102
*1239 FILLER_0_32_104
*1240 FILLER_0_32_107
*1241 FILLER_0_32_111
*1242 FILLER_0_32_115
*1243 FILLER_0_32_147
*1244 FILLER_0_32_177
*1245 FILLER_0_32_2
*1246 FILLER_0_32_209
*1247 FILLER_0_32_225
*1248 FILLER_0_32_227
*1249 FILLER_0_32_233
*1250 FILLER_0_32_241
*1251 FILLER_0_32_281
*1252 FILLER_0_32_285
*1253 FILLER_0_32_301
*1254 FILLER_0_32_309
*1255 FILLER_0_32_313
*1256 FILLER_0_32_317
*1257 FILLER_0_32_325
*1258 FILLER_0_32_329
*1259 FILLER_0_32_34
*1260 FILLER_0_32_37
*1261 FILLER_0_32_69
*1262 FILLER_0_32_77
*1263 FILLER_0_32_81
*1264 FILLER_0_32_86
*1265 FILLER_0_33_121
*1266 FILLER_0_33_137
*1267 FILLER_0_33_139
*1268 FILLER_0_33_142
*1269 FILLER_0_33_158
*1270 FILLER_0_33_166
*1271 FILLER_0_33_179
*1272 FILLER_0_33_195
*1273 FILLER_0_33_2
*1274 FILLER_0_33_203
*1275 FILLER_0_33_207
*1276 FILLER_0_33_209
*1277 FILLER_0_33_212
*1278 FILLER_0_33_276
*1279 FILLER_0_33_282
*1280 FILLER_0_33_314
*1281 FILLER_0_33_330
*1282 FILLER_0_33_66
*1283 FILLER_0_33_72
*1284 FILLER_0_33_88
*1285 FILLER_0_33_96
*1286 FILLER_0_34_113
*1287 FILLER_0_34_149
*1288 FILLER_0_34_153
*1289 FILLER_0_34_172
*1290 FILLER_0_34_174
*1291 FILLER_0_34_177
*1292 FILLER_0_34_181
*1293 FILLER_0_34_183
*1294 FILLER_0_34_2
*1295 FILLER_0_34_218
*1296 FILLER_0_34_222
*1297 FILLER_0_34_226
*1298 FILLER_0_34_242
*1299 FILLER_0_34_244
*1300 FILLER_0_34_247
*1301 FILLER_0_34_311
*1302 FILLER_0_34_317
*1303 FILLER_0_34_325
*1304 FILLER_0_34_329
*1305 FILLER_0_34_34
*1306 FILLER_0_34_37
*1307 FILLER_0_34_53
*1308 FILLER_0_34_61
*1309 FILLER_0_34_63
*1310 FILLER_0_34_79
*1311 FILLER_0_34_85
*1312 FILLER_0_34_93
*1313 FILLER_0_34_97
*1314 FILLER_0_34_99
*1315 FILLER_0_35_121
*1316 FILLER_0_35_137
*1317 FILLER_0_35_139
*1318 FILLER_0_35_142
*1319 FILLER_0_35_150
*1320 FILLER_0_35_178
*1321 FILLER_0_35_2
*1322 FILLER_0_35_212
*1323 FILLER_0_35_276
*1324 FILLER_0_35_282
*1325 FILLER_0_35_314
*1326 FILLER_0_35_330
*1327 FILLER_0_35_34
*1328 FILLER_0_35_95
*1329 FILLER_0_35_97
*1330 FILLER_0_36_10
*1331 FILLER_0_36_103
*1332 FILLER_0_36_107
*1333 FILLER_0_36_113
*1334 FILLER_0_36_145
*1335 FILLER_0_36_153
*1336 FILLER_0_36_171
*1337 FILLER_0_36_177
*1338 FILLER_0_36_2
*1339 FILLER_0_36_241
*1340 FILLER_0_36_247
*1341 FILLER_0_36_311
*1342 FILLER_0_36_317
*1343 FILLER_0_36_325
*1344 FILLER_0_36_329
*1345 FILLER_0_36_41
*1346 FILLER_0_36_57
*1347 FILLER_0_36_65
*1348 FILLER_0_36_83
*1349 FILLER_0_36_99
*1350 FILLER_0_37_104
*1351 FILLER_0_37_126
*1352 FILLER_0_37_134
*1353 FILLER_0_37_138
*1354 FILLER_0_37_142
*1355 FILLER_0_37_158
*1356 FILLER_0_37_162
*1357 FILLER_0_37_172
*1358 FILLER_0_37_2
*1359 FILLER_0_37_204
*1360 FILLER_0_37_208
*1361 FILLER_0_37_212
*1362 FILLER_0_37_276
*1363 FILLER_0_37_282
*1364 FILLER_0_37_314
*1365 FILLER_0_37_330
*1366 FILLER_0_37_37
*1367 FILLER_0_37_41
*1368 FILLER_0_37_45
*1369 FILLER_0_37_61
*1370 FILLER_0_37_69
*1371 FILLER_0_37_72
*1372 FILLER_0_38_103
*1373 FILLER_0_38_107
*1374 FILLER_0_38_115
*1375 FILLER_0_38_117
*1376 FILLER_0_38_130
*1377 FILLER_0_38_162
*1378 FILLER_0_38_170
*1379 FILLER_0_38_174
*1380 FILLER_0_38_177
*1381 FILLER_0_38_2
*1382 FILLER_0_38_241
*1383 FILLER_0_38_247
*1384 FILLER_0_38_311
*1385 FILLER_0_38_317
*1386 FILLER_0_38_325
*1387 FILLER_0_38_329
*1388 FILLER_0_38_34
*1389 FILLER_0_38_37
*1390 FILLER_0_38_69
*1391 FILLER_0_38_77
*1392 FILLER_0_38_87
*1393 FILLER_0_39_104
*1394 FILLER_0_39_112
*1395 FILLER_0_39_116
*1396 FILLER_0_39_118
*1397 FILLER_0_39_124
*1398 FILLER_0_39_142
*1399 FILLER_0_39_18
*1400 FILLER_0_39_2
*1401 FILLER_0_39_206
*1402 FILLER_0_39_212
*1403 FILLER_0_39_26
*1404 FILLER_0_39_276
*1405 FILLER_0_39_282
*1406 FILLER_0_39_314
*1407 FILLER_0_39_33
*1408 FILLER_0_39_330
*1409 FILLER_0_39_65
*1410 FILLER_0_39_69
*1411 FILLER_0_39_72
*1412 FILLER_0_3_103
*1413 FILLER_0_3_150
*1414 FILLER_0_3_158
*1415 FILLER_0_3_160
*1416 FILLER_0_3_163
*1417 FILLER_0_3_167
*1418 FILLER_0_3_199
*1419 FILLER_0_3_2
*1420 FILLER_0_3_203
*1421 FILLER_0_3_205
*1422 FILLER_0_3_208
*1423 FILLER_0_3_244
*1424 FILLER_0_3_282
*1425 FILLER_0_3_286
*1426 FILLER_0_3_290
*1427 FILLER_0_3_326
*1428 FILLER_0_3_328
*1429 FILLER_0_3_37
*1430 FILLER_0_3_41
*1431 FILLER_0_3_43
*1432 FILLER_0_3_46
*1433 FILLER_0_3_6
*1434 FILLER_0_3_62
*1435 FILLER_0_3_8
*1436 FILLER_0_40_10
*1437 FILLER_0_40_103
*1438 FILLER_0_40_112
*1439 FILLER_0_40_126
*1440 FILLER_0_40_142
*1441 FILLER_0_40_144
*1442 FILLER_0_40_16
*1443 FILLER_0_40_169
*1444 FILLER_0_40_173
*1445 FILLER_0_40_177
*1446 FILLER_0_40_2
*1447 FILLER_0_40_20
*1448 FILLER_0_40_241
*1449 FILLER_0_40_247
*1450 FILLER_0_40_25
*1451 FILLER_0_40_311
*1452 FILLER_0_40_317
*1453 FILLER_0_40_325
*1454 FILLER_0_40_329
*1455 FILLER_0_40_33
*1456 FILLER_0_40_37
*1457 FILLER_0_40_57
*1458 FILLER_0_40_73
*1459 FILLER_0_40_75
*1460 FILLER_0_40_99
*1461 FILLER_0_41_106
*1462 FILLER_0_41_108
*1463 FILLER_0_41_114
*1464 FILLER_0_41_130
*1465 FILLER_0_41_134
*1466 FILLER_0_41_142
*1467 FILLER_0_41_144
*1468 FILLER_0_41_172
*1469 FILLER_0_41_2
*1470 FILLER_0_41_204
*1471 FILLER_0_41_208
*1472 FILLER_0_41_212
*1473 FILLER_0_41_276
*1474 FILLER_0_41_282
*1475 FILLER_0_41_314
*1476 FILLER_0_41_330
*1477 FILLER_0_41_65
*1478 FILLER_0_41_69
*1479 FILLER_0_41_72
*1480 FILLER_0_41_77
*1481 FILLER_0_41_85
*1482 FILLER_0_42_102
*1483 FILLER_0_42_104
*1484 FILLER_0_42_107
*1485 FILLER_0_42_139
*1486 FILLER_0_42_14
*1487 FILLER_0_42_143
*1488 FILLER_0_42_165
*1489 FILLER_0_42_173
*1490 FILLER_0_42_177
*1491 FILLER_0_42_2
*1492 FILLER_0_42_241
*1493 FILLER_0_42_247
*1494 FILLER_0_42_30
*1495 FILLER_0_42_311
*1496 FILLER_0_42_317
*1497 FILLER_0_42_325
*1498 FILLER_0_42_329
*1499 FILLER_0_42_34
*1500 FILLER_0_42_37
*1501 FILLER_0_42_75
*1502 FILLER_0_42_91
*1503 FILLER_0_42_98
*1504 FILLER_0_43_116
*1505 FILLER_0_43_132
*1506 FILLER_0_43_142
*1507 FILLER_0_43_2
*1508 FILLER_0_43_206
*1509 FILLER_0_43_212
*1510 FILLER_0_43_276
*1511 FILLER_0_43_282
*1512 FILLER_0_43_314
*1513 FILLER_0_43_330
*1514 FILLER_0_43_34
*1515 FILLER_0_43_42
*1516 FILLER_0_43_46
*1517 FILLER_0_43_64
*1518 FILLER_0_43_68
*1519 FILLER_0_43_72
*1520 FILLER_0_43_88
*1521 FILLER_0_44_107
*1522 FILLER_0_44_171
*1523 FILLER_0_44_177
*1524 FILLER_0_44_2
*1525 FILLER_0_44_241
*1526 FILLER_0_44_247
*1527 FILLER_0_44_311
*1528 FILLER_0_44_317
*1529 FILLER_0_44_325
*1530 FILLER_0_44_329
*1531 FILLER_0_44_34
*1532 FILLER_0_44_37
*1533 FILLER_0_44_57