*SPEF "ieee 1481-1999"
*DESIGN "peri_top"
*DATE "11:11:11 Fri 11 11, 1111"
*VENDOR "OpenRCX"
*PROGRAM "Parallel Extraction"
*VERSION "1.0"
*DESIGN_FLOW "NAME_SCOPE LOCAL" "PIN_CAP NONE"
*DIVIDER /
*DELIMITER :
*BUS_DELIMITER []
*T_UNIT 1 NS
*C_UNIT 1 PF
*R_UNIT 1 OHM
*L_UNIT 1 HENRY

*NAME_MAP
*3 mclk
*4 reg_ack
*5 reg_addr[0]
*6 reg_addr[10]
*7 reg_addr[1]
*8 reg_addr[2]
*9 reg_addr[3]
*10 reg_addr[4]
*11 reg_addr[5]
*12 reg_addr[6]
*13 reg_addr[7]
*14 reg_addr[8]
*15 reg_addr[9]
*16 reg_be[0]
*17 reg_be[1]
*18 reg_be[2]
*19 reg_be[3]
*20 reg_cs
*21 reg_rdata[0]
*22 reg_rdata[10]
*23 reg_rdata[11]
*24 reg_rdata[12]
*25 reg_rdata[13]
*26 reg_rdata[14]
*27 reg_rdata[15]
*28 reg_rdata[16]
*29 reg_rdata[17]
*30 reg_rdata[18]
*31 reg_rdata[19]
*32 reg_rdata[1]
*33 reg_rdata[20]
*34 reg_rdata[21]
*35 reg_rdata[22]
*36 reg_rdata[23]
*37 reg_rdata[24]
*38 reg_rdata[25]
*39 reg_rdata[26]
*40 reg_rdata[27]
*41 reg_rdata[28]
*42 reg_rdata[29]
*43 reg_rdata[2]
*44 reg_rdata[30]
*45 reg_rdata[31]
*46 reg_rdata[3]
*47 reg_rdata[4]
*48 reg_rdata[5]
*49 reg_rdata[6]
*50 reg_rdata[7]
*51 reg_rdata[8]
*52 reg_rdata[9]
*53 reg_wdata[0]
*54 reg_wdata[10]
*55 reg_wdata[11]
*56 reg_wdata[12]
*57 reg_wdata[13]
*58 reg_wdata[14]
*59 reg_wdata[15]
*60 reg_wdata[16]
*61 reg_wdata[17]
*62 reg_wdata[18]
*63 reg_wdata[19]
*64 reg_wdata[1]
*65 reg_wdata[20]
*66 reg_wdata[21]
*67 reg_wdata[22]
*68 reg_wdata[23]
*69 reg_wdata[24]
*70 reg_wdata[25]
*71 reg_wdata[26]
*72 reg_wdata[27]
*73 reg_wdata[28]
*74 reg_wdata[29]
*75 reg_wdata[2]
*76 reg_wdata[30]
*77 reg_wdata[31]
*78 reg_wdata[3]
*79 reg_wdata[4]
*80 reg_wdata[5]
*81 reg_wdata[6]
*82 reg_wdata[7]
*83 reg_wdata[8]
*84 reg_wdata[9]
*85 reg_wr
*86 rtc_clk
*87 rtc_intr
*88 s_reset_n
*89 _00_
*90 _01_
*91 _02_
*92 clknet_0_mclk
*93 clknet_0_rtc_clk
*94 clknet_2_0__leaf_mclk
*95 clknet_2_0__leaf_rtc_clk
*96 clknet_2_1__leaf_mclk
*97 clknet_2_1__leaf_rtc_clk
*98 clknet_2_2__leaf_mclk
*99 clknet_2_2__leaf_rtc_clk
*100 clknet_2_3__leaf_mclk
*101 clknet_2_3__leaf_rtc_clk
*102 clknet_leaf_0_rtc_clk
*103 clknet_leaf_10_rtc_clk
*104 clknet_leaf_11_rtc_clk
*105 clknet_leaf_12_rtc_clk
*106 clknet_leaf_13_rtc_clk
*107 clknet_leaf_14_rtc_clk
*108 clknet_leaf_15_rtc_clk
*109 clknet_leaf_16_rtc_clk
*110 clknet_leaf_17_rtc_clk
*111 clknet_leaf_18_rtc_clk
*112 clknet_leaf_19_rtc_clk
*113 clknet_leaf_1_rtc_clk
*114 clknet_leaf_20_rtc_clk
*115 clknet_leaf_22_rtc_clk
*116 clknet_leaf_23_rtc_clk
*117 clknet_leaf_24_rtc_clk
*118 clknet_leaf_25_rtc_clk
*119 clknet_leaf_26_rtc_clk
*120 clknet_leaf_27_rtc_clk
*121 clknet_leaf_28_rtc_clk
*122 clknet_leaf_29_rtc_clk
*123 clknet_leaf_2_rtc_clk
*124 clknet_leaf_30_rtc_clk
*125 clknet_leaf_31_rtc_clk
*126 clknet_leaf_32_rtc_clk
*127 clknet_leaf_33_rtc_clk
*128 clknet_leaf_34_rtc_clk
*129 clknet_leaf_35_rtc_clk
*130 clknet_leaf_36_rtc_clk
*131 clknet_leaf_37_rtc_clk
*132 clknet_leaf_38_rtc_clk
*133 clknet_leaf_39_rtc_clk
*134 clknet_leaf_3_rtc_clk
*135 clknet_leaf_40_rtc_clk
*136 clknet_leaf_41_rtc_clk
*137 clknet_leaf_42_rtc_clk
*138 clknet_leaf_43_rtc_clk
*139 clknet_leaf_44_rtc_clk
*140 clknet_leaf_45_rtc_clk
*141 clknet_leaf_46_rtc_clk
*142 clknet_leaf_47_rtc_clk
*143 clknet_leaf_48_rtc_clk
*144 clknet_leaf_49_rtc_clk
*145 clknet_leaf_4_rtc_clk
*146 clknet_leaf_50_rtc_clk
*147 clknet_leaf_5_rtc_clk
*148 clknet_leaf_6_rtc_clk
*149 clknet_leaf_7_rtc_clk
*150 clknet_leaf_8_rtc_clk
*151 clknet_leaf_9_rtc_clk
*152 net1
*153 net10
*154 net100
*155 net101
*156 net102
*157 net103
*158 net104
*159 net105
*160 net106
*161 net107
*162 net108
*163 net109
*164 net11
*165 net110
*166 net111
*167 net112
*168 net113
*169 net114
*170 net115
*171 net116
*172 net117
*173 net118
*174 net119
*175 net12
*176 net120
*177 net121
*178 net122
*179 net123
*180 net124
*181 net125
*182 net126
*183 net127
*184 net128
*185 net129
*186 net13
*187 net130
*188 net131
*189 net132
*190 net133
*191 net134
*192 net135
*193 net136
*194 net137
*195 net138
*196 net139
*197 net14
*198 net140
*199 net141
*200 net142
*201 net143
*202 net144
*203 net145
*204 net146
*205 net147
*206 net148
*207 net149
*208 net15
*209 net150
*210 net151
*211 net152
*212 net153
*213 net154
*214 net155
*215 net156
*216 net157
*217 net158
*218 net159
*219 net16
*220 net160
*221 net161
*222 net162
*223 net163
*224 net17
*225 net18
*226 net19
*227 net2
*228 net20
*229 net21
*230 net22
*231 net23
*232 net24
*233 net25
*234 net26
*235 net27
*236 net28
*237 net29
*238 net3
*239 net30
*240 net31
*241 net32
*242 net33
*243 net34
*244 net35
*245 net36
*246 net37
*247 net38
*248 net39
*249 net4
*250 net40
*251 net41
*252 net42
*253 net43
*254 net44
*255 net45
*256 net46
*257 net47
*258 net48
*259 net49
*260 net5
*261 net50
*262 net51
*263 net52
*264 net53
*265 net54
*266 net55
*267 net56
*268 net57
*269 net58
*270 net59
*271 net6
*272 net60
*273 net61
*274 net62
*275 net63
*276 net64
*277 net65
*278 net66
*279 net67
*280 net68
*281 net69
*282 net7
*283 net70
*284 net71
*285 net72
*286 net73
*287 net74
*288 net75
*289 net76
*290 net77
*291 net78
*292 net79
*293 net8
*294 net80
*295 net81
*296 net82
*297 net83
*298 net84
*299 net85
*300 net86
*301 net87
*302 net88
*303 net89
*304 net9
*305 net90
*306 net91
*307 net92
*308 net93
*309 net94
*310 net95
*311 net96
*312 net97
*313 net98
*314 net99
*315 u_rst_sync\.in_data_2s
*316 u_rst_sync\.in_data_s
*317 u_rst_sync\.srst_n
*318 u_rtc\.cfg_date\[0\]
*319 u_rtc\.cfg_date\[10\]
*320 u_rtc\.cfg_date\[11\]
*321 u_rtc\.cfg_date\[12\]
*322 u_rtc\.cfg_date\[13\]
*323 u_rtc\.cfg_date\[14\]
*324 u_rtc\.cfg_date\[15\]
*325 u_rtc\.cfg_date\[16\]
*326 u_rtc\.cfg_date\[17\]
*327 u_rtc\.cfg_date\[18\]
*328 u_rtc\.cfg_date\[19\]
*329 u_rtc\.cfg_date\[1\]
*330 u_rtc\.cfg_date\[20\]
*331 u_rtc\.cfg_date\[21\]
*332 u_rtc\.cfg_date\[22\]
*333 u_rtc\.cfg_date\[23\]
*334 u_rtc\.cfg_date\[24\]
*335 u_rtc\.cfg_date\[25\]
*336 u_rtc\.cfg_date\[26\]
*337 u_rtc\.cfg_date\[27\]
*338 u_rtc\.cfg_date\[28\]
*339 u_rtc\.cfg_date\[29\]
*340 u_rtc\.cfg_date\[2\]
*341 u_rtc\.cfg_date\[30\]
*342 u_rtc\.cfg_date\[31\]
*343 u_rtc\.cfg_date\[3\]
*344 u_rtc\.cfg_date\[4\]
*345 u_rtc\.cfg_date\[5\]
*346 u_rtc\.cfg_date\[6\]
*347 u_rtc\.cfg_date\[7\]
*348 u_rtc\.cfg_date\[8\]
*349 u_rtc\.cfg_date\[9\]
*350 u_rtc\.cfg_fast_date
*351 u_rtc\.cfg_fast_time
*352 u_rtc\.cfg_hmode
*353 u_rtc\.cfg_rtc_capture
*354 u_rtc\.cfg_rtc_halt
*355 u_rtc\.cfg_rtc_reset
*356 u_rtc\.cfg_rtc_update
*357 u_rtc\.cfg_time\[0\]
*358 u_rtc\.cfg_time\[10\]
*359 u_rtc\.cfg_time\[11\]
*360 u_rtc\.cfg_time\[12\]
*361 u_rtc\.cfg_time\[13\]
*362 u_rtc\.cfg_time\[14\]
*363 u_rtc\.cfg_time\[15\]
*364 u_rtc\.cfg_time\[16\]
*365 u_rtc\.cfg_time\[17\]
*366 u_rtc\.cfg_time\[18\]
*367 u_rtc\.cfg_time\[19\]
*368 u_rtc\.cfg_time\[1\]
*369 u_rtc\.cfg_time\[20\]
*370 u_rtc\.cfg_time\[21\]
*371 u_rtc\.cfg_time\[22\]
*372 u_rtc\.cfg_time\[23\]
*373 u_rtc\.cfg_time\[24\]
*374 u_rtc\.cfg_time\[25\]
*375 u_rtc\.cfg_time\[26\]
*376 u_rtc\.cfg_time\[27\]
*377 u_rtc\.cfg_time\[28\]
*378 u_rtc\.cfg_time\[29\]
*379 u_rtc\.cfg_time\[2\]
*380 u_rtc\.cfg_time\[30\]
*381 u_rtc\.cfg_time\[31\]
*382 u_rtc\.cfg_time\[3\]
*383 u_rtc\.cfg_time\[4\]
*384 u_rtc\.cfg_time\[5\]
*385 u_rtc\.cfg_time\[6\]
*386 u_rtc\.cfg_time\[7\]
*387 u_rtc\.cfg_time\[8\]
*388 u_rtc\.cfg_time\[9\]
*389 u_rtc\.date_c\[0\]
*390 u_rtc\.date_c\[1\]
*391 u_rtc\.date_c\[2\]
*392 u_rtc\.date_c\[3\]
*393 u_rtc\.date_d\[0\]
*394 u_rtc\.date_d\[1\]
*395 u_rtc\.date_d\[2\]
*396 u_rtc\.date_d\[3\]
*397 u_rtc\.date_m\[0\]
*398 u_rtc\.date_m\[1\]
*399 u_rtc\.date_m\[2\]
*400 u_rtc\.date_m\[3\]
*401 u_rtc\.date_tc\[0\]
*402 u_rtc\.date_tc\[1\]
*403 u_rtc\.date_tc\[2\]
*404 u_rtc\.date_tc\[3\]
*405 u_rtc\.date_td\[0\]
*406 u_rtc\.date_td\[1\]
*407 u_rtc\.date_tm
*408 u_rtc\.date_ty\[0\]
*409 u_rtc\.date_ty\[1\]
*410 u_rtc\.date_ty\[2\]
*411 u_rtc\.date_ty\[3\]
*412 u_rtc\.date_y\[0\]
*413 u_rtc\.date_y\[1\]
*414 u_rtc\.date_y\[2\]
*415 u_rtc\.date_y\[3\]
*416 u_rtc\.inc_date_d
*417 u_rtc\.inc_date_m
*418 u_rtc\.inc_date_td
*419 u_rtc\.inc_date_tm
*420 u_rtc\.inc_date_ty
*421 u_rtc\.inc_date_y
*422 u_rtc\.inc_time_dow
*423 u_rtc\.inc_time_h
*424 u_rtc\.inc_time_m
*425 u_rtc\.inc_time_s
*426 u_rtc\.inc_time_th
*427 u_rtc\.inc_time_tm
*428 u_rtc\.inc_time_ts
*429 u_rtc\.reg_ack
*430 u_rtc\.reg_cs
*431 u_rtc\.reg_rdata\[0\]
*432 u_rtc\.reg_rdata\[10\]
*433 u_rtc\.reg_rdata\[11\]
*434 u_rtc\.reg_rdata\[12\]
*435 u_rtc\.reg_rdata\[13\]
*436 u_rtc\.reg_rdata\[14\]
*437 u_rtc\.reg_rdata\[15\]
*438 u_rtc\.reg_rdata\[16\]
*439 u_rtc\.reg_rdata\[17\]
*440 u_rtc\.reg_rdata\[18\]
*441 u_rtc\.reg_rdata\[19\]
*442 u_rtc\.reg_rdata\[1\]
*443 u_rtc\.reg_rdata\[20\]
*444 u_rtc\.reg_rdata\[21\]
*445 u_rtc\.reg_rdata\[22\]
*446 u_rtc\.reg_rdata\[23\]
*447 u_rtc\.reg_rdata\[24\]
*448 u_rtc\.reg_rdata\[25\]
*449 u_rtc\.reg_rdata\[26\]
*450 u_rtc\.reg_rdata\[27\]
*451 u_rtc\.reg_rdata\[28\]
*452 u_rtc\.reg_rdata\[29\]
*453 u_rtc\.reg_rdata\[2\]
*454 u_rtc\.reg_rdata\[30\]
*455 u_rtc\.reg_rdata\[31\]
*456 u_rtc\.reg_rdata\[3\]
*457 u_rtc\.reg_rdata\[4\]
*458 u_rtc\.reg_rdata\[5\]
*459 u_rtc\.reg_rdata\[6\]
*460 u_rtc\.reg_rdata\[7\]
*461 u_rtc\.reg_rdata\[8\]
*462 u_rtc\.reg_rdata\[9\]
*463 u_rtc\.rst_rn
*464 u_rtc\.rst_sn
*465 u_rtc\.rtc_reg_ack
*466 u_rtc\.rtc_reg_addr\[2\]
*467 u_rtc\.rtc_reg_addr\[3\]
*468 u_rtc\.rtc_reg_addr\[4\]
*469 u_rtc\.rtc_reg_be\[0\]
*470 u_rtc\.rtc_reg_be\[1\]
*471 u_rtc\.rtc_reg_be\[2\]
*472 u_rtc\.rtc_reg_be\[3\]
*473 u_rtc\.rtc_reg_cs
*474 u_rtc\.rtc_reg_rdata\[0\]
*475 u_rtc\.rtc_reg_rdata\[10\]
*476 u_rtc\.rtc_reg_rdata\[11\]
*477 u_rtc\.rtc_reg_rdata\[12\]
*478 u_rtc\.rtc_reg_rdata\[13\]
*479 u_rtc\.rtc_reg_rdata\[14\]
*480 u_rtc\.rtc_reg_rdata\[15\]
*481 u_rtc\.rtc_reg_rdata\[16\]
*482 u_rtc\.rtc_reg_rdata\[17\]
*483 u_rtc\.rtc_reg_rdata\[18\]
*484 u_rtc\.rtc_reg_rdata\[19\]
*485 u_rtc\.rtc_reg_rdata\[1\]
*486 u_rtc\.rtc_reg_rdata\[20\]
*487 u_rtc\.rtc_reg_rdata\[21\]
*488 u_rtc\.rtc_reg_rdata\[22\]
*489 u_rtc\.rtc_reg_rdata\[23\]
*490 u_rtc\.rtc_reg_rdata\[24\]
*491 u_rtc\.rtc_reg_rdata\[25\]
*492 u_rtc\.rtc_reg_rdata\[26\]
*493 u_rtc\.rtc_reg_rdata\[27\]
*494 u_rtc\.rtc_reg_rdata\[28\]
*495 u_rtc\.rtc_reg_rdata\[29\]
*496 u_rtc\.rtc_reg_rdata\[2\]
*497 u_rtc\.rtc_reg_rdata\[30\]
*498 u_rtc\.rtc_reg_rdata\[31\]
*499 u_rtc\.rtc_reg_rdata\[3\]
*500 u_rtc\.rtc_reg_rdata\[4\]
*501 u_rtc\.rtc_reg_rdata\[5\]
*502 u_rtc\.rtc_reg_rdata\[6\]
*503 u_rtc\.rtc_reg_rdata\[7\]
*504 u_rtc\.rtc_reg_rdata\[8\]
*505 u_rtc\.rtc_reg_rdata\[9\]
*506 u_rtc\.rtc_reg_wdata\[0\]
*507 u_rtc\.rtc_reg_wdata\[10\]
*508 u_rtc\.rtc_reg_wdata\[11\]
*509 u_rtc\.rtc_reg_wdata\[12\]
*510 u_rtc\.rtc_reg_wdata\[13\]
*511 u_rtc\.rtc_reg_wdata\[14\]
*512 u_rtc\.rtc_reg_wdata\[15\]
*513 u_rtc\.rtc_reg_wdata\[16\]
*514 u_rtc\.rtc_reg_wdata\[17\]
*515 u_rtc\.rtc_reg_wdata\[18\]
*516 u_rtc\.rtc_reg_wdata\[19\]
*517 u_rtc\.rtc_reg_wdata\[1\]
*518 u_rtc\.rtc_reg_wdata\[20\]
*519 u_rtc\.rtc_reg_wdata\[21\]
*520 u_rtc\.rtc_reg_wdata\[22\]
*521 u_rtc\.rtc_reg_wdata\[23\]
*522 u_rtc\.rtc_reg_wdata\[24\]
*523 u_rtc\.rtc_reg_wdata\[25\]
*524 u_rtc\.rtc_reg_wdata\[26\]
*525 u_rtc\.rtc_reg_wdata\[27\]
*526 u_rtc\.rtc_reg_wdata\[28\]
*527 u_rtc\.rtc_reg_wdata\[29\]
*528 u_rtc\.rtc_reg_wdata\[2\]
*529 u_rtc\.rtc_reg_wdata\[30\]
*530 u_rtc\.rtc_reg_wdata\[31\]
*531 u_rtc\.rtc_reg_wdata\[3\]
*532 u_rtc\.rtc_reg_wdata\[4\]
*533 u_rtc\.rtc_reg_wdata\[5\]
*534 u_rtc\.rtc_reg_wdata\[6\]
*535 u_rtc\.rtc_reg_wdata\[7\]
*536 u_rtc\.rtc_reg_wdata\[8\]
*537 u_rtc\.rtc_reg_wdata\[9\]
*538 u_rtc\.rtc_reg_wr
*539 u_rtc\.time_dow\[0\]
*540 u_rtc\.time_dow\[1\]
*541 u_rtc\.time_dow\[2\]
*542 u_rtc\.time_h\[0\]
*543 u_rtc\.time_h\[1\]
*544 u_rtc\.time_h\[2\]
*545 u_rtc\.time_h\[3\]
*546 u_rtc\.time_m\[0\]
*547 u_rtc\.time_m\[1\]
*548 u_rtc\.time_m\[2\]
*549 u_rtc\.time_m\[3\]
*550 u_rtc\.time_s\[0\]
*551 u_rtc\.time_s\[1\]
*552 u_rtc\.time_s\[2\]
*553 u_rtc\.time_s\[3\]
*554 u_rtc\.time_th\[0\]
*555 u_rtc\.time_th\[1\]
*556 u_rtc\.time_tm\[0\]
*557 u_rtc\.time_tm\[1\]
*558 u_rtc\.time_tm\[2\]
*559 u_rtc\.time_ts\[0\]
*560 u_rtc\.time_ts\[1\]
*561 u_rtc\.time_ts\[2\]
*562 u_rtc\.u_async_reg_bus\._000_
*563 u_rtc\.u_async_reg_bus\._001_
*564 u_rtc\.u_async_reg_bus\._002_
*565 u_rtc\.u_async_reg_bus\._003_
*566 u_rtc\.u_async_reg_bus\._004_
*567 u_rtc\.u_async_reg_bus\._005_
*568 u_rtc\.u_async_reg_bus\._006_
*569 u_rtc\.u_async_reg_bus\._007_
*570 u_rtc\.u_async_reg_bus\._008_
*571 u_rtc\.u_async_reg_bus\._009_
*572 u_rtc\.u_async_reg_bus\._010_
*573 u_rtc\.u_async_reg_bus\._011_
*574 u_rtc\.u_async_reg_bus\._012_
*575 u_rtc\.u_async_reg_bus\._013_
*576 u_rtc\.u_async_reg_bus\._014_
*577 u_rtc\.u_async_reg_bus\._015_
*578 u_rtc\.u_async_reg_bus\._016_
*579 u_rtc\.u_async_reg_bus\._017_
*580 u_rtc\.u_async_reg_bus\._018_
*581 u_rtc\.u_async_reg_bus\._019_
*582 u_rtc\.u_async_reg_bus\._020_
*583 u_rtc\.u_async_reg_bus\._021_
*584 u_rtc\.u_async_reg_bus\._022_
*585 u_rtc\.u_async_reg_bus\._023_
*586 u_rtc\.u_async_reg_bus\._024_
*587 u_rtc\.u_async_reg_bus\._025_
*588 u_rtc\.u_async_reg_bus\._026_
*589 u_rtc\.u_async_reg_bus\._027_
*590 u_rtc\.u_async_reg_bus\._028_
*591 u_rtc\.u_async_reg_bus\._029_
*592 u_rtc\.u_async_reg_bus\._030_
*593 u_rtc\.u_async_reg_bus\._031_
*594 u_rtc\.u_async_reg_bus\._032_
*595 u_rtc\.u_async_reg_bus\._033_
*596 u_rtc\.u_async_reg_bus\._034_
*597 u_rtc\.u_async_reg_bus\._035_
*598 u_rtc\.u_async_reg_bus\._036_
*599 u_rtc\.u_async_reg_bus\._037_
*600 u_rtc\.u_async_reg_bus\._038_
*601 u_rtc\.u_async_reg_bus\._039_
*602 u_rtc\.u_async_reg_bus\._040_
*603 u_rtc\.u_async_reg_bus\._041_
*604 u_rtc\.u_async_reg_bus\._042_
*605 u_rtc\.u_async_reg_bus\._043_
*606 u_rtc\.u_async_reg_bus\._044_
*607 u_rtc\.u_async_reg_bus\._045_
*608 u_rtc\.u_async_reg_bus\._046_
*609 u_rtc\.u_async_reg_bus\._047_
*610 u_rtc\.u_async_reg_bus\._048_
*611 u_rtc\.u_async_reg_bus\._049_
*612 u_rtc\.u_async_reg_bus\._050_
*613 u_rtc\.u_async_reg_bus\._051_
*614 u_rtc\.u_async_reg_bus\._052_
*615 u_rtc\.u_async_reg_bus\._053_
*616 u_rtc\.u_async_reg_bus\._054_
*617 u_rtc\.u_async_reg_bus\._055_
*618 u_rtc\.u_async_reg_bus\._056_
*619 u_rtc\.u_async_reg_bus\._057_
*620 u_rtc\.u_async_reg_bus\._058_
*621 u_rtc\.u_async_reg_bus\._059_
*622 u_rtc\.u_async_reg_bus\._060_
*623 u_rtc\.u_async_reg_bus\._061_
*624 u_rtc\.u_async_reg_bus\._062_
*625 u_rtc\.u_async_reg_bus\._063_
*626 u_rtc\.u_async_reg_bus\._064_
*627 u_rtc\.u_async_reg_bus\._065_
*628 u_rtc\.u_async_reg_bus\._066_
*629 u_rtc\.u_async_reg_bus\._067_
*630 u_rtc\.u_async_reg_bus\._068_
*631 u_rtc\.u_async_reg_bus\._069_
*632 u_rtc\.u_async_reg_bus\._070_
*633 u_rtc\.u_async_reg_bus\._071_
*634 u_rtc\.u_async_reg_bus\._072_
*635 u_rtc\.u_async_reg_bus\._073_
*636 u_rtc\.u_async_reg_bus\._074_
*637 u_rtc\.u_async_reg_bus\._075_
*638 u_rtc\.u_async_reg_bus\._076_
*639 u_rtc\.u_async_reg_bus\._077_
*640 u_rtc\.u_async_reg_bus\._078_
*641 u_rtc\.u_async_reg_bus\._079_
*642 u_rtc\.u_async_reg_bus\._080_
*643 u_rtc\.u_async_reg_bus\._081_
*644 u_rtc\.u_async_reg_bus\._082_
*645 u_rtc\.u_async_reg_bus\._083_
*646 u_rtc\.u_async_reg_bus\._084_
*647 u_rtc\.u_async_reg_bus\._085_
*648 u_rtc\.u_async_reg_bus\._086_
*649 u_rtc\.u_async_reg_bus\._087_
*650 u_rtc\.u_async_reg_bus\._088_
*651 u_rtc\.u_async_reg_bus\._089_
*652 u_rtc\.u_async_reg_bus\._090_
*653 u_rtc\.u_async_reg_bus\.in_flag
*654 u_rtc\.u_async_reg_bus\.in_flag_s
*655 u_rtc\.u_async_reg_bus\.in_flag_ss
*656 u_rtc\.u_async_reg_bus\.in_state\[0\]
*657 u_rtc\.u_async_reg_bus\.in_state\[1\]
*658 u_rtc\.u_async_reg_bus\.out_flag
*659 u_rtc\.u_async_reg_bus\.out_flag_s
*660 u_rtc\.u_async_reg_bus\.out_flag_ss
*661 u_rtc\.u_async_reg_bus\.out_state\[0\]
*662 u_rtc\.u_async_reg_bus\.out_state\[1\]
*663 u_rtc\.u_core\._000_
*664 u_rtc\.u_core\._001_
*665 u_rtc\.u_core\._002_
*666 u_rtc\.u_core\._003_
*667 u_rtc\.u_core\._004_
*668 u_rtc\.u_core\._005_
*669 u_rtc\.u_core\._006_
*670 u_rtc\.u_core\._007_
*671 u_rtc\.u_core\._008_
*672 u_rtc\.u_core\._009_
*673 u_rtc\.u_core\._010_
*674 u_rtc\.u_core\._011_
*675 u_rtc\.u_core\._012_
*676 u_rtc\.u_core\._013_
*677 u_rtc\.u_core\._014_
*678 u_rtc\.u_core\._015_
*679 u_rtc\.u_core\._016_
*680 u_rtc\.u_core\._017_
*681 u_rtc\.u_core\._018_
*682 u_rtc\.u_core\._019_
*683 u_rtc\.u_core\._020_
*684 u_rtc\.u_core\._021_
*685 u_rtc\.u_core\._022_
*686 u_rtc\.u_core\._023_
*687 u_rtc\.u_core\._024_
*688 u_rtc\.u_core\._025_
*689 u_rtc\.u_core\._026_
*690 u_rtc\.u_core\._027_
*691 u_rtc\.u_core\._028_
*692 u_rtc\.u_core\._029_
*693 u_rtc\.u_core\._030_
*694 u_rtc\.u_core\._031_
*695 u_rtc\.u_core\._032_
*696 u_rtc\.u_core\._033_
*697 u_rtc\.u_core\._034_
*698 u_rtc\.u_core\._035_
*699 u_rtc\.u_core\._036_
*700 u_rtc\.u_core\._037_
*701 u_rtc\.u_core\._038_
*702 u_rtc\.u_core\._039_
*703 u_rtc\.u_core\._040_
*704 u_rtc\.u_core\._041_
*705 u_rtc\.u_core\._042_
*706 u_rtc\.u_core\._043_
*707 u_rtc\.u_core\._044_
*708 u_rtc\.u_core\._045_
*709 u_rtc\.u_core\._046_
*710 u_rtc\.u_core\._047_
*711 u_rtc\.u_core\._048_
*712 u_rtc\.u_core\._049_
*713 u_rtc\.u_core\._050_
*714 u_rtc\.u_core\._051_
*715 u_rtc\.u_core\._052_
*716 u_rtc\.u_core\._053_
*717 u_rtc\.u_core\._054_
*718 u_rtc\.u_core\._055_
*719 u_rtc\.u_core\._056_
*720 u_rtc\.u_core\._057_
*721 u_rtc\.u_core\._058_
*722 u_rtc\.u_core\._059_
*723 u_rtc\.u_core\._060_
*724 u_rtc\.u_core\._061_
*725 u_rtc\.u_core\._062_
*726 u_rtc\.u_core\._063_
*727 u_rtc\.u_core\._064_
*728 u_rtc\.u_core\._065_
*729 u_rtc\.u_core\._066_
*730 u_rtc\.u_core\._067_
*731 u_rtc\.u_core\._068_
*732 u_rtc\.u_core\._069_
*733 u_rtc\.u_core\._070_
*734 u_rtc\.u_core\._071_
*735 u_rtc\.u_core\._072_
*736 u_rtc\.u_core\._073_
*737 u_rtc\.u_core\._074_
*738 u_rtc\.u_core\._075_
*739 u_rtc\.u_core\._076_
*740 u_rtc\.u_core\._077_
*741 u_rtc\.u_core\._078_
*742 u_rtc\.u_core\._079_
*743 u_rtc\.u_core\._080_
*744 u_rtc\.u_core\._081_
*745 u_rtc\.u_core\._082_
*746 u_rtc\.u_core\._083_
*747 u_rtc\.u_core\._084_
*748 u_rtc\.u_core\._085_
*749 u_rtc\.u_core\._086_
*750 u_rtc\.u_core\._087_
*751 u_rtc\.u_core\._088_
*752 u_rtc\.u_core\._089_
*753 u_rtc\.u_core\._090_
*754 u_rtc\.u_core\._091_
*755 u_rtc\.u_core\._092_
*756 u_rtc\.u_core\._093_
*757 u_rtc\.u_core\._094_
*758 u_rtc\.u_core\._095_
*759 u_rtc\.u_core\._096_
*760 u_rtc\.u_core\._097_
*761 u_rtc\.u_core\._098_
*762 u_rtc\.u_core\._099_
*763 u_rtc\.u_core\._100_
*764 u_rtc\.u_core\._101_
*765 u_rtc\.u_core\._102_
*766 u_rtc\.u_core\._103_
*767 u_rtc\.u_core\._104_
*768 u_rtc\.u_core\._105_
*769 u_rtc\.u_core\._106_
*770 u_rtc\.u_core\._107_
*771 u_rtc\.u_core\._108_
*772 u_rtc\.u_core\._109_
*773 u_rtc\.u_core\._110_
*774 u_rtc\.u_core\._111_
*775 u_rtc\.u_core\._112_
*776 u_rtc\.u_core\._113_
*777 u_rtc\.u_core\._114_
*778 u_rtc\.u_core\._115_
*779 u_rtc\.u_core\._116_
*780 u_rtc\.u_core\._117_
*781 u_rtc\.u_core\._118_
*782 u_rtc\.u_core\._119_
*783 u_rtc\.u_core\._120_
*784 u_rtc\.u_core\._121_
*785 u_rtc\.u_core\._122_
*786 u_rtc\.u_core\._123_
*787 u_rtc\.u_core\._124_
*788 u_rtc\.u_core\._125_
*789 u_rtc\.u_core\._126_
*790 u_rtc\.u_core\._127_
*791 u_rtc\.u_core\._128_
*792 u_rtc\.u_core\._129_
*793 u_rtc\.u_core\._130_
*794 u_rtc\.u_core\._131_
*795 u_rtc\.u_core\._132_
*796 u_rtc\.u_core\._133_
*797 u_rtc\.u_core\._134_
*798 u_rtc\.u_core\._135_
*799 u_rtc\.u_core\._136_
*800 u_rtc\.u_core\._137_
*801 u_rtc\.u_core\._138_
*802 u_rtc\.u_core\._139_
*803 u_rtc\.u_core\._140_
*804 u_rtc\.u_core\._141_
*805 u_rtc\.u_core\._142_
*806 u_rtc\.u_core\._143_
*807 u_rtc\.u_core\._144_
*808 u_rtc\.u_core\._145_
*809 u_rtc\.u_core\._146_
*810 u_rtc\.u_core\._147_
*811 u_rtc\.u_core\._148_
*812 u_rtc\.u_core\._149_
*813 u_rtc\.u_core\._150_
*814 u_rtc\.u_core\._151_
*815 u_rtc\.u_core\._152_
*816 u_rtc\.u_core\._153_
*817 u_rtc\.u_core\._154_
*818 u_rtc\.u_core\._155_
*819 u_rtc\.u_core\._156_
*820 u_rtc\.u_core\._157_
*821 u_rtc\.u_core\._158_
*822 u_rtc\.u_core\._159_
*823 u_rtc\.u_core\._160_
*824 u_rtc\.u_core\._161_
*825 u_rtc\.u_core\._162_
*826 u_rtc\.u_core\._163_
*827 u_rtc\.u_core\._164_
*828 u_rtc\.u_core\._165_
*829 u_rtc\.u_core\._166_
*830 u_rtc\.u_core\._167_
*831 u_rtc\.u_core\._168_
*832 u_rtc\.u_core\._169_
*833 u_rtc\.u_core\._170_
*834 u_rtc\.u_core\._171_
*835 u_rtc\.u_core\._172_
*836 u_rtc\.u_core\._173_
*837 u_rtc\.u_core\._174_
*838 u_rtc\.u_core\._175_
*839 u_rtc\.u_core\._176_
*840 u_rtc\.u_core\._177_
*841 u_rtc\.u_core\._178_
*842 u_rtc\.u_core\._179_
*843 u_rtc\.u_core\._180_
*844 u_rtc\.u_core\._181_
*845 u_rtc\.u_core\._182_
*846 u_rtc\.u_core\._183_
*847 u_rtc\.u_core\._184_
*848 u_rtc\.u_core\._185_
*849 u_rtc\.u_core\._186_
*850 u_rtc\.u_core\._187_
*851 u_rtc\.u_core\._188_
*852 u_rtc\.u_core\._189_
*853 u_rtc\.u_core\._190_
*854 u_rtc\.u_core\._191_
*855 u_rtc\.u_core\._192_
*856 u_rtc\.u_core\._193_
*857 u_rtc\.u_core\._194_
*858 u_rtc\.u_core\._195_
*859 u_rtc\.u_core\._196_
*860 u_rtc\.u_core\._197_
*861 u_rtc\.u_core\._198_
*862 u_rtc\.u_core\._199_
*863 u_rtc\.u_core\._200_
*864 u_rtc\.u_core\._201_
*865 u_rtc\.u_core\._202_
*866 u_rtc\.u_core\._203_
*867 u_rtc\.u_core\._204_
*868 u_rtc\.u_core\._205_
*869 u_rtc\.u_core\._206_
*870 u_rtc\.u_core\._207_
*871 u_rtc\.u_core\._208_
*872 u_rtc\.u_core\._209_
*873 u_rtc\.u_core\._210_
*874 u_rtc\.u_core\._211_
*875 u_rtc\.u_core\._212_
*876 u_rtc\.u_core\._213_
*877 u_rtc\.u_core\._214_
*878 u_rtc\.u_core\._215_
*879 u_rtc\.u_core\._216_
*880 u_rtc\.u_core\._217_
*881 u_rtc\.u_core\._218_
*882 u_rtc\.u_core\._219_
*883 u_rtc\.u_core\._220_
*884 u_rtc\.u_core\._221_
*885 u_rtc\.u_core\._222_
*886 u_rtc\.u_core\._223_
*887 u_rtc\.u_core\._224_
*888 u_rtc\.u_core\._225_
*889 u_rtc\.u_core\._226_
*890 u_rtc\.u_core\._227_
*891 u_rtc\.u_core\._228_
*892 u_rtc\.u_core\._229_
*893 u_rtc\.u_core\._230_
*894 u_rtc\.u_core\._231_
*895 u_rtc\.u_core\._232_
*896 u_rtc\.u_core\._233_
*897 u_rtc\.u_core\._234_
*898 u_rtc\.u_core\._235_
*899 u_rtc\.u_core\._236_
*900 u_rtc\.u_core\._237_
*901 u_rtc\.u_core\._238_
*902 u_rtc\.u_core\._239_
*903 u_rtc\.u_core\._240_
*904 u_rtc\.u_core\._241_
*905 u_rtc\.u_core\._242_
*906 u_rtc\.u_core\._243_
*907 u_rtc\.u_core\._244_
*908 u_rtc\.u_core\._245_
*909 u_rtc\.u_core\._246_
*910 u_rtc\.u_core\._247_
*911 u_rtc\.u_core\._248_
*912 u_rtc\.u_core\._249_
*913 u_rtc\.u_core\._250_
*914 u_rtc\.u_core\._251_
*915 u_rtc\.u_core\._252_
*916 u_rtc\.u_core\._253_
*917 u_rtc\.u_core\._254_
*918 u_rtc\.u_core\._255_
*919 u_rtc\.u_core\._256_
*920 u_rtc\.u_core\._257_
*921 u_rtc\.u_core\._258_
*922 u_rtc\.u_core\._259_
*923 u_rtc\.u_core\._260_
*924 u_rtc\.u_core\._261_
*925 u_rtc\.u_core\._262_
*926 u_rtc\.u_core\._263_
*927 u_rtc\.u_core\._264_
*928 u_rtc\.u_core\._265_
*929 u_rtc\.u_core\._266_
*930 u_rtc\.u_core\._267_
*931 u_rtc\.u_core\._268_
*932 u_rtc\.u_core\._269_
*933 u_rtc\.u_core\._270_
*934 u_rtc\.u_core\._271_
*935 u_rtc\.u_core\._272_
*936 u_rtc\.u_core\._273_
*937 u_rtc\.u_core\._274_
*938 u_rtc\.u_core\._275_
*939 u_rtc\.u_core\._276_
*940 u_rtc\.u_core\._277_
*941 u_rtc\.u_core\._278_
*942 u_rtc\.u_core\._279_
*943 u_rtc\.u_core\._280_
*944 u_rtc\.u_core\._281_
*945 u_rtc\.u_core\._282_
*946 u_rtc\.u_core\._283_
*947 u_rtc\.u_core\._284_
*948 u_rtc\.u_core\._285_
*949 u_rtc\.u_core\._286_
*950 u_rtc\.u_core\._287_
*951 u_rtc\.u_core\._288_
*952 u_rtc\.u_core\._289_
*953 u_rtc\.u_core\._290_
*954 u_rtc\.u_core\._291_
*955 u_rtc\.u_core\._292_
*956 u_rtc\.u_core\._293_
*957 u_rtc\.u_core\._294_
*958 u_rtc\.u_core\._295_
*959 u_rtc\.u_core\._296_
*960 u_rtc\.u_core\._297_
*961 u_rtc\.u_core\._298_
*962 u_rtc\.u_core\._299_
*963 u_rtc\.u_core\._300_
*964 u_rtc\.u_core\._301_
*965 u_rtc\.u_core\._302_
*966 u_rtc\.u_core\._303_
*967 u_rtc\.u_core\._304_
*968 u_rtc\.u_core\._305_
*969 u_rtc\.u_core\._306_
*970 u_rtc\.u_core\._307_
*971 u_rtc\.u_core\._308_
*972 u_rtc\.u_core\._309_
*973 u_rtc\.u_core\._310_
*974 u_rtc\.u_core\._311_
*975 u_rtc\.u_core\._312_
*976 u_rtc\.u_core\._313_
*977 u_rtc\.u_core\._314_
*978 u_rtc\.u_core\._315_
*979 u_rtc\.u_core\._316_
*980 u_rtc\.u_core\._317_
*981 u_rtc\.u_core\._318_
*982 u_rtc\.u_core\._319_
*983 u_rtc\.u_core\._320_
*984 u_rtc\.u_core\._321_
*985 u_rtc\.u_core\._322_
*986 u_rtc\.u_core\._323_
*987 u_rtc\.u_core\._324_
*988 u_rtc\.u_core\._325_
*989 u_rtc\.u_core\._326_
*990 u_rtc\.u_core\._327_
*991 u_rtc\.u_core\._328_
*992 u_rtc\.u_core\._329_
*993 u_rtc\.u_core\._330_
*994 u_rtc\.u_core\._331_
*995 u_rtc\.u_core\._332_
*996 u_rtc\.u_core\._333_
*997 u_rtc\.u_core\._334_
*998 u_rtc\.u_core\._335_
*999 u_rtc\.u_core\._336_
*1000 u_rtc\.u_core\._337_
*1001 u_rtc\.u_core\._338_
*1002 u_rtc\.u_core\._339_
*1003 u_rtc\.u_core\._340_
*1004 u_rtc\.u_core\._341_
*1005 u_rtc\.u_core\._342_
*1006 u_rtc\.u_core\._343_
*1007 u_rtc\.u_core\._344_
*1008 u_rtc\.u_core\._345_
*1009 u_rtc\.u_core\._346_
*1010 u_rtc\.u_core\._347_
*1011 u_rtc\.u_core\._348_
*1012 u_rtc\.u_core\._349_
*1013 u_rtc\.u_core\._350_
*1014 u_rtc\.u_core\._351_
*1015 u_rtc\.u_core\._352_
*1016 u_rtc\.u_core\._353_
*1017 u_rtc\.u_core\._354_
*1018 u_rtc\.u_core\._355_
*1019 u_rtc\.u_core\._356_
*1020 u_rtc\.u_core\._357_
*1021 u_rtc\.u_core\._358_
*1022 u_rtc\.u_core\._359_
*1023 u_rtc\.u_core\._360_
*1024 u_rtc\.u_core\._361_
*1025 u_rtc\.u_core\._362_
*1026 u_rtc\.u_core\._363_
*1027 u_rtc\.u_core\._364_
*1028 u_rtc\.u_core\._365_
*1029 u_rtc\.u_core\._366_
*1030 u_rtc\.u_core\._367_
*1031 u_rtc\.u_core\._368_
*1032 u_rtc\.u_core\._369_
*1033 u_rtc\.u_core\._370_
*1034 u_rtc\.u_core\.pulse_1s
*1035 u_rtc\.u_core\.rtc_div\[0\]
*1036 u_rtc\.u_core\.rtc_div\[10\]
*1037 u_rtc\.u_core\.rtc_div\[11\]
*1038 u_rtc\.u_core\.rtc_div\[12\]
*1039 u_rtc\.u_core\.rtc_div\[13\]
*1040 u_rtc\.u_core\.rtc_div\[14\]
*1041 u_rtc\.u_core\.rtc_div\[1\]
*1042 u_rtc\.u_core\.rtc_div\[2\]
*1043 u_rtc\.u_core\.rtc_div\[3\]
*1044 u_rtc\.u_core\.rtc_div\[4\]
*1045 u_rtc\.u_core\.rtc_div\[5\]
*1046 u_rtc\.u_core\.rtc_div\[6\]
*1047 u_rtc\.u_core\.rtc_div\[7\]
*1048 u_rtc\.u_core\.rtc_div\[8\]
*1049 u_rtc\.u_core\.rtc_div\[9\]
*1050 u_rtc\.u_reg\._0000_
*1051 u_rtc\.u_reg\._0001_
*1052 u_rtc\.u_reg\._0002_
*1053 u_rtc\.u_reg\._0003_
*1054 u_rtc\.u_reg\._0004_
*1055 u_rtc\.u_reg\._0005_
*1056 u_rtc\.u_reg\._0006_
*1057 u_rtc\.u_reg\._0007_
*1058 u_rtc\.u_reg\._0008_
*1059 u_rtc\.u_reg\._0009_
*1060 u_rtc\.u_reg\._0010_
*1061 u_rtc\.u_reg\._0011_
*1062 u_rtc\.u_reg\._0012_
*1063 u_rtc\.u_reg\._0013_
*1064 u_rtc\.u_reg\._0014_
*1065 u_rtc\.u_reg\._0015_
*1066 u_rtc\.u_reg\._0016_
*1067 u_rtc\.u_reg\._0017_
*1068 u_rtc\.u_reg\._0018_
*1069 u_rtc\.u_reg\._0019_
*1070 u_rtc\.u_reg\._0020_
*1071 u_rtc\.u_reg\._0021_
*1072 u_rtc\.u_reg\._0022_
*1073 u_rtc\.u_reg\._0023_
*1074 u_rtc\.u_reg\._0024_
*1075 u_rtc\.u_reg\._0025_
*1076 u_rtc\.u_reg\._0026_
*1077 u_rtc\.u_reg\._0027_
*1078 u_rtc\.u_reg\._0028_
*1079 u_rtc\.u_reg\._0029_
*1080 u_rtc\.u_reg\._0030_
*1081 u_rtc\.u_reg\._0031_
*1082 u_rtc\.u_reg\._0032_
*1083 u_rtc\.u_reg\._0033_
*1084 u_rtc\.u_reg\._0034_
*1085 u_rtc\.u_reg\._0035_
*1086 u_rtc\.u_reg\._0036_
*1087 u_rtc\.u_reg\._0037_
*1088 u_rtc\.u_reg\._0038_
*1089 u_rtc\.u_reg\._0039_
*1090 u_rtc\.u_reg\._0040_
*1091 u_rtc\.u_reg\._0041_
*1092 u_rtc\.u_reg\._0042_
*1093 u_rtc\.u_reg\._0043_
*1094 u_rtc\.u_reg\._0044_
*1095 u_rtc\.u_reg\._0045_
*1096 u_rtc\.u_reg\._0046_
*1097 u_rtc\.u_reg\._0047_
*1098 u_rtc\.u_reg\._0048_
*1099 u_rtc\.u_reg\._0049_
*1100 u_rtc\.u_reg\._0050_
*1101 u_rtc\.u_reg\._0051_
*1102 u_rtc\.u_reg\._0052_
*1103 u_rtc\.u_reg\._0053_
*1104 u_rtc\.u_reg\._0054_
*1105 u_rtc\.u_reg\._0055_
*1106 u_rtc\.u_reg\._0056_
*1107 u_rtc\.u_reg\._0057_
*1108 u_rtc\.u_reg\._0058_
*1109 u_rtc\.u_reg\._0059_
*1110 u_rtc\.u_reg\._0060_
*1111 u_rtc\.u_reg\._0061_
*1112 u_rtc\.u_reg\._0062_
*1113 u_rtc\.u_reg\._0063_
*1114 u_rtc\.u_reg\._0064_
*1115 u_rtc\.u_reg\._0065_
*1116 u_rtc\.u_reg\._0066_
*1117 u_rtc\.u_reg\._0067_
*1118 u_rtc\.u_reg\._0068_
*1119 u_rtc\.u_reg\._0069_
*1120 u_rtc\.u_reg\._0070_
*1121 u_rtc\.u_reg\._0071_
*1122 u_rtc\.u_reg\._0072_
*1123 u_rtc\.u_reg\._0073_
*1124 u_rtc\.u_reg\._0074_
*1125 u_rtc\.u_reg\._0075_
*1126 u_rtc\.u_reg\._0076_
*1127 u_rtc\.u_reg\._0077_
*1128 u_rtc\.u_reg\._0078_
*1129 u_rtc\.u_reg\._0079_
*1130 u_rtc\.u_reg\._0080_
*1131 u_rtc\.u_reg\._0081_
*1132 u_rtc\.u_reg\._0082_
*1133 u_rtc\.u_reg\._0083_
*1134 u_rtc\.u_reg\._0084_
*1135 u_rtc\.u_reg\._0085_
*1136 u_rtc\.u_reg\._0086_
*1137 u_rtc\.u_reg\._0087_
*1138 u_rtc\.u_reg\._0088_
*1139 u_rtc\.u_reg\._0089_
*1140 u_rtc\.u_reg\._0090_
*1141 u_rtc\.u_reg\._0091_
*1142 u_rtc\.u_reg\._0092_
*1143 u_rtc\.u_reg\._0093_
*1144 u_rtc\.u_reg\._0094_
*1145 u_rtc\.u_reg\._0095_
*1146 u_rtc\.u_reg\._0096_
*1147 u_rtc\.u_reg\._0097_
*1148 u_rtc\.u_reg\._0098_
*1149 u_rtc\.u_reg\._0099_
*1150 u_rtc\.u_reg\._0100_
*1151 u_rtc\.u_reg\._0101_
*1152 u_rtc\.u_reg\._0102_
*1153 u_rtc\.u_reg\._0103_
*1154 u_rtc\.u_reg\._0104_
*1155 u_rtc\.u_reg\._0105_
*1156 u_rtc\.u_reg\._0106_
*1157 u_rtc\.u_reg\._0107_
*1158 u_rtc\.u_reg\._0108_
*1159 u_rtc\.u_reg\._0109_
*1160 u_rtc\.u_reg\._0110_
*1161 u_rtc\.u_reg\._0111_
*1162 u_rtc\.u_reg\._0112_
*1163 u_rtc\.u_reg\._0113_
*1164 u_rtc\.u_reg\._0114_
*1165 u_rtc\.u_reg\._0115_
*1166 u_rtc\.u_reg\._0116_
*1167 u_rtc\.u_reg\._0117_
*1168 u_rtc\.u_reg\._0118_
*1169 u_rtc\.u_reg\._0119_
*1170 u_rtc\.u_reg\._0120_
*1171 u_rtc\.u_reg\._0121_
*1172 u_rtc\.u_reg\._0122_
*1173 u_rtc\.u_reg\._0123_
*1174 u_rtc\.u_reg\._0124_
*1175 u_rtc\.u_reg\._0125_
*1176 u_rtc\.u_reg\._0126_
*1177 u_rtc\.u_reg\._0127_
*1178 u_rtc\.u_reg\._0128_
*1179 u_rtc\.u_reg\._0129_
*1180 u_rtc\.u_reg\._0130_
*1181 u_rtc\.u_reg\._0131_
*1182 u_rtc\.u_reg\._0132_
*1183 u_rtc\.u_reg\._0133_
*1184 u_rtc\.u_reg\._0134_
*1185 u_rtc\.u_reg\._0135_
*1186 u_rtc\.u_reg\._0136_
*1187 u_rtc\.u_reg\._0137_
*1188 u_rtc\.u_reg\._0138_
*1189 u_rtc\.u_reg\._0139_
*1190 u_rtc\.u_reg\._0140_
*1191 u_rtc\.u_reg\._0141_
*1192 u_rtc\.u_reg\._0142_
*1193 u_rtc\.u_reg\._0143_
*1194 u_rtc\.u_reg\._0144_
*1195 u_rtc\.u_reg\._0145_
*1196 u_rtc\.u_reg\._0146_
*1197 u_rtc\.u_reg\._0147_
*1198 u_rtc\.u_reg\._0148_
*1199 u_rtc\.u_reg\._0149_
*1200 u_rtc\.u_reg\._0150_
*1201 u_rtc\.u_reg\._0151_
*1202 u_rtc\.u_reg\._0152_
*1203 u_rtc\.u_reg\._0153_