*SPEF "ieee 1481-1999"
*DESIGN "peri_top"
*DATE "11:11:11 Fri 11 11, 1111"
*VENDOR "OpenRCX"
*PROGRAM "Parallel Extraction"
*VERSION "1.0"
*DESIGN_FLOW "NAME_SCOPE LOCAL" "PIN_CAP NONE"
*DIVIDER /
*DELIMITER :
*BUS_DELIMITER []
*T_UNIT 1 NS
*C_UNIT 1 PF
*R_UNIT 1 OHM
*L_UNIT 1 HENRY

*NAME_MAP
*3 mclk
*4 net24
*5 reg_addr[0]
*6 reg_addr[10]
*7 reg_addr[1]
*8 reg_addr[2]
*9 reg_addr[3]
*10 reg_addr[4]
*11 reg_addr[5]
*12 reg_addr[6]
*13 reg_addr[7]
*14 reg_addr[8]
*15 reg_addr[9]
*16 reg_be[0]
*17 reg_be[1]
*18 reg_be[2]
*19 reg_be[3]
*20 reg_cs
*21 net25
*22 net35
*23 net36
*24 net37
*25 net38
*26 net39
*27 net40
*28 net41
*29 net42
*30 net43
*31 net44
*32 net26
*33 net45
*34 net46
*35 net47
*36 net48
*37 net49
*38 net50
*39 net51
*40 net52
*41 net53
*42 net54
*43 net27
*44 net55
*45 net56
*46 net28
*47 net29
*48 net30
*49 net31
*50 net32
*51 net33
*52 net34
*53 reg_wdata[0]
*54 reg_wdata[10]
*55 reg_wdata[11]
*56 reg_wdata[12]
*57 reg_wdata[13]
*58 reg_wdata[14]
*59 reg_wdata[15]
*60 reg_wdata[16]
*61 reg_wdata[17]
*62 reg_wdata[18]
*63 reg_wdata[19]
*64 reg_wdata[1]
*65 reg_wdata[20]
*66 reg_wdata[21]
*67 reg_wdata[22]
*68 reg_wdata[23]
*69 reg_wdata[24]
*70 reg_wdata[25]
*71 reg_wdata[26]
*72 reg_wdata[27]
*73 reg_wdata[28]
*74 reg_wdata[29]
*75 reg_wdata[2]
*76 reg_wdata[30]
*77 reg_wdata[31]
*78 reg_wdata[3]
*79 reg_wdata[4]
*80 reg_wdata[5]
*81 reg_wdata[6]
*82 reg_wdata[7]
*83 reg_wdata[8]
*84 reg_wdata[9]
*85 reg_wr
*86 rtc_clk
*87 rtc_intr
*88 s_reset_n
*89 clknet_0_mclk
*90 clknet_0_rtc_clk
*91 clknet_1_0__leaf_mclk
*92 clknet_1_1__leaf_mclk
*93 clknet_4_0_0_rtc_clk
*94 clknet_4_10_0_rtc_clk
*95 clknet_4_11_0_rtc_clk
*96 clknet_4_12_0_rtc_clk
*97 clknet_4_13_0_rtc_clk
*98 clknet_4_14_0_rtc_clk
*99 clknet_4_15_0_rtc_clk
*100 clknet_4_1_0_rtc_clk
*101 clknet_4_2_0_rtc_clk
*102 clknet_4_3_0_rtc_clk
*103 clknet_4_4_0_rtc_clk
*104 clknet_4_5_0_rtc_clk
*105 clknet_4_6_0_rtc_clk
*106 clknet_4_7_0_rtc_clk
*107 clknet_4_8_0_rtc_clk
*108 clknet_4_9_0_rtc_clk
*109 net1
*110 net10
*111 net11
*112 net12
*113 net13
*114 net14
*115 net15
*116 net16
*117 net17
*118 net18
*119 net19
*120 net2
*121 net20
*122 net21
*123 net22
*124 net23
*125 net3
*126 net4
*127 net5
*128 net57
*129 net58
*130 net59
*131 net6
*132 net60
*133 net61
*134 net62
*135 net63
*136 net64
*137 net65
*138 net66
*139 net67
*140 net68
*141 net69
*142 net7
*143 net8
*144 net9
*145 u_rst_sync\.in_data_2s
*146 u_rst_sync\.in_data_s
*147 u_rst_sync\.srst_n
*148 u_rtc\.cfg_date\[0\]
*149 u_rtc\.cfg_date\[10\]
*150 u_rtc\.cfg_date\[11\]
*151 u_rtc\.cfg_date\[12\]
*152 u_rtc\.cfg_date\[16\]
*153 u_rtc\.cfg_date\[17\]
*154 u_rtc\.cfg_date\[18\]
*155 u_rtc\.cfg_date\[19\]
*156 u_rtc\.cfg_date\[1\]
*157 u_rtc\.cfg_date\[20\]
*158 u_rtc\.cfg_date\[21\]
*159 u_rtc\.cfg_date\[22\]
*160 u_rtc\.cfg_date\[23\]
*161 u_rtc\.cfg_date\[24\]
*162 u_rtc\.cfg_date\[25\]
*163 u_rtc\.cfg_date\[26\]
*164 u_rtc\.cfg_date\[27\]
*165 u_rtc\.cfg_date\[28\]
*166 u_rtc\.cfg_date\[29\]
*167 u_rtc\.cfg_date\[2\]
*168 u_rtc\.cfg_date\[30\]
*169 u_rtc\.cfg_date\[31\]
*170 u_rtc\.cfg_date\[3\]
*171 u_rtc\.cfg_date\[4\]
*172 u_rtc\.cfg_date\[5\]
*173 u_rtc\.cfg_date\[8\]
*174 u_rtc\.cfg_date\[9\]
*175 u_rtc\.cfg_fast_date
*176 u_rtc\.cfg_fast_time
*177 u_rtc\.cfg_hmode
*178 u_rtc\.cfg_rtc_capture
*179 u_rtc\.cfg_rtc_halt
*180 u_rtc\.cfg_rtc_reset
*181 u_rtc\.cfg_rtc_update
*182 u_rtc\.cfg_time\[0\]
*183 u_rtc\.cfg_time\[10\]
*184 u_rtc\.cfg_time\[11\]
*185 u_rtc\.cfg_time\[12\]
*186 u_rtc\.cfg_time\[13\]
*187 u_rtc\.cfg_time\[14\]
*188 u_rtc\.cfg_time\[16\]
*189 u_rtc\.cfg_time\[17\]
*190 u_rtc\.cfg_time\[18\]
*191 u_rtc\.cfg_time\[19\]
*192 u_rtc\.cfg_time\[1\]
*193 u_rtc\.cfg_time\[20\]
*194 u_rtc\.cfg_time\[21\]
*195 u_rtc\.cfg_time\[24\]
*196 u_rtc\.cfg_time\[25\]
*197 u_rtc\.cfg_time\[26\]
*198 u_rtc\.cfg_time\[2\]
*199 u_rtc\.cfg_time\[3\]
*200 u_rtc\.cfg_time\[4\]
*201 u_rtc\.cfg_time\[5\]
*202 u_rtc\.cfg_time\[6\]
*203 u_rtc\.cfg_time\[8\]
*204 u_rtc\.cfg_time\[9\]
*205 u_rtc\.date_c\[0\]
*206 u_rtc\.date_c\[1\]
*207 u_rtc\.date_c\[2\]
*208 u_rtc\.date_c\[3\]
*209 u_rtc\.date_d\[0\]
*210 u_rtc\.date_d\[1\]
*211 u_rtc\.date_d\[2\]
*212 u_rtc\.date_d\[3\]
*213 u_rtc\.date_m\[0\]
*214 u_rtc\.date_m\[1\]
*215 u_rtc\.date_m\[2\]
*216 u_rtc\.date_m\[3\]
*217 u_rtc\.date_tc\[0\]
*218 u_rtc\.date_tc\[1\]
*219 u_rtc\.date_tc\[2\]
*220 u_rtc\.date_tc\[3\]
*221 u_rtc\.date_td\[0\]
*222 u_rtc\.date_td\[1\]
*223 u_rtc\.date_tm
*224 u_rtc\.date_ty\[0\]
*225 u_rtc\.date_ty\[1\]
*226 u_rtc\.date_ty\[2\]
*227 u_rtc\.date_ty\[3\]
*228 u_rtc\.date_y\[0\]
*229 u_rtc\.date_y\[1\]
*230 u_rtc\.date_y\[2\]
*231 u_rtc\.date_y\[3\]
*232 u_rtc\.inc_date_c
*233 u_rtc\.inc_date_d
*234 u_rtc\.inc_date_m
*235 u_rtc\.inc_date_td
*236 u_rtc\.inc_date_tm
*237 u_rtc\.inc_date_ty
*238 u_rtc\.inc_date_y
*239 u_rtc\.inc_time_dow
*240 u_rtc\.inc_time_h
*241 u_rtc\.inc_time_m
*242 u_rtc\.inc_time_s
*243 u_rtc\.inc_time_th
*244 u_rtc\.inc_time_tm
*245 u_rtc\.inc_time_ts
*246 u_rtc\.rst_rn
*247 u_rtc\.rst_sn
*248 u_rtc\.rtc_reg_ack
*249 u_rtc\.rtc_reg_addr\[2\]
*250 u_rtc\.rtc_reg_addr\[3\]
*251 u_rtc\.rtc_reg_addr\[4\]
*252 u_rtc\.rtc_reg_be\[0\]
*253 u_rtc\.rtc_reg_be\[1\]
*254 u_rtc\.rtc_reg_be\[2\]
*255 u_rtc\.rtc_reg_be\[3\]
*256 u_rtc\.rtc_reg_cs
*257 u_rtc\.rtc_reg_wdata\[0\]
*258 u_rtc\.rtc_reg_wdata\[10\]
*259 u_rtc\.rtc_reg_wdata\[11\]
*260 u_rtc\.rtc_reg_wdata\[12\]
*261 u_rtc\.rtc_reg_wdata\[13\]
*262 u_rtc\.rtc_reg_wdata\[14\]
*263 u_rtc\.rtc_reg_wdata\[15\]
*264 u_rtc\.rtc_reg_wdata\[16\]
*265 u_rtc\.rtc_reg_wdata\[17\]
*266 u_rtc\.rtc_reg_wdata\[18\]
*267 u_rtc\.rtc_reg_wdata\[19\]
*268 u_rtc\.rtc_reg_wdata\[1\]
*269 u_rtc\.rtc_reg_wdata\[20\]
*270 u_rtc\.rtc_reg_wdata\[21\]
*271 u_rtc\.rtc_reg_wdata\[22\]
*272 u_rtc\.rtc_reg_wdata\[23\]
*273 u_rtc\.rtc_reg_wdata\[24\]
*274 u_rtc\.rtc_reg_wdata\[25\]
*275 u_rtc\.rtc_reg_wdata\[26\]
*276 u_rtc\.rtc_reg_wdata\[27\]
*277 u_rtc\.rtc_reg_wdata\[28\]
*278 u_rtc\.rtc_reg_wdata\[29\]
*279 u_rtc\.rtc_reg_wdata\[2\]
*280 u_rtc\.rtc_reg_wdata\[30\]
*281 u_rtc\.rtc_reg_wdata\[31\]
*282 u_rtc\.rtc_reg_wdata\[3\]
*283 u_rtc\.rtc_reg_wdata\[4\]
*284 u_rtc\.rtc_reg_wdata\[5\]
*285 u_rtc\.rtc_reg_wdata\[6\]
*286 u_rtc\.rtc_reg_wdata\[7\]
*287 u_rtc\.rtc_reg_wdata\[8\]
*288 u_rtc\.rtc_reg_wdata\[9\]
*289 u_rtc\.rtc_reg_wr
*290 u_rtc\.time_dow\[0\]
*291 u_rtc\.time_dow\[1\]
*292 u_rtc\.time_dow\[2\]
*293 u_rtc\.time_h\[0\]
*294 u_rtc\.time_h\[1\]
*295 u_rtc\.time_h\[2\]
*296 u_rtc\.time_h\[3\]
*297 u_rtc\.time_m\[0\]
*298 u_rtc\.time_m\[1\]
*299 u_rtc\.time_m\[2\]
*300 u_rtc\.time_m\[3\]
*301 u_rtc\.time_s\[0\]
*302 u_rtc\.time_s\[1\]
*303 u_rtc\.time_s\[2\]
*304 u_rtc\.time_s\[3\]
*305 u_rtc\.time_th\[0\]
*306 u_rtc\.time_th\[1\]
*307 u_rtc\.time_tm\[0\]
*308 u_rtc\.time_tm\[1\]
*309 u_rtc\.time_tm\[2\]
*310 u_rtc\.time_ts\[0\]
*311 u_rtc\.time_ts\[1\]
*312 u_rtc\.time_ts\[2\]
*313 u_rtc\.u_async_reg_bus\._000_
*314 u_rtc\.u_async_reg_bus\._001_
*315 u_rtc\.u_async_reg_bus\._002_
*316 u_rtc\.u_async_reg_bus\._003_
*317 u_rtc\.u_async_reg_bus\._004_
*318 u_rtc\.u_async_reg_bus\._038_
*319 u_rtc\.u_async_reg_bus\._039_
*320 u_rtc\.u_async_reg_bus\._040_
*321 u_rtc\.u_async_reg_bus\._041_
*322 u_rtc\.u_async_reg_bus\._042_
*323 u_rtc\.u_async_reg_bus\._043_
*324 u_rtc\.u_async_reg_bus\._044_
*325 u_rtc\.u_async_reg_bus\._045_
*326 u_rtc\.u_async_reg_bus\._046_
*327 u_rtc\.u_async_reg_bus\._047_
*328 u_rtc\.u_async_reg_bus\._048_
*329 u_rtc\.u_async_reg_bus\._049_
*330 u_rtc\.u_async_reg_bus\._050_
*331 u_rtc\.u_async_reg_bus\._051_
*332 u_rtc\.u_async_reg_bus\._052_
*333 u_rtc\.u_async_reg_bus\._053_
*334 u_rtc\.u_async_reg_bus\._054_
*335 u_rtc\.u_async_reg_bus\._055_
*336 u_rtc\.u_async_reg_bus\._056_
*337 u_rtc\.u_async_reg_bus\._091_
*338 u_rtc\.u_async_reg_bus\.in_flag
*339 u_rtc\.u_async_reg_bus\.in_flag_s
*340 u_rtc\.u_async_reg_bus\.in_flag_ss
*341 u_rtc\.u_async_reg_bus\.in_state\[0\]
*342 u_rtc\.u_async_reg_bus\.in_state\[1\]
*343 u_rtc\.u_async_reg_bus\.out_flag
*344 u_rtc\.u_async_reg_bus\.out_flag_s
*345 u_rtc\.u_async_reg_bus\.out_flag_ss
*346 u_rtc\.u_async_reg_bus\.out_state\[0\]
*347 u_rtc\.u_async_reg_bus\.out_state\[1\]
*348 u_rtc\.u_core\._000_
*349 u_rtc\.u_core\._001_
*350 u_rtc\.u_core\._002_
*351 u_rtc\.u_core\._003_
*352 u_rtc\.u_core\._004_
*353 u_rtc\.u_core\._005_
*354 u_rtc\.u_core\._006_
*355 u_rtc\.u_core\._007_
*356 u_rtc\.u_core\._008_
*357 u_rtc\.u_core\._009_
*358 u_rtc\.u_core\._010_
*359 u_rtc\.u_core\._011_
*360 u_rtc\.u_core\._012_
*361 u_rtc\.u_core\._013_
*362 u_rtc\.u_core\._014_
*363 u_rtc\.u_core\._015_
*364 u_rtc\.u_core\._016_
*365 u_rtc\.u_core\._017_
*366 u_rtc\.u_core\._018_
*367 u_rtc\.u_core\._019_
*368 u_rtc\.u_core\._020_
*369 u_rtc\.u_core\._021_
*370 u_rtc\.u_core\._022_
*371 u_rtc\.u_core\._023_
*372 u_rtc\.u_core\._024_
*373 u_rtc\.u_core\._025_
*374 u_rtc\.u_core\._026_
*375 u_rtc\.u_core\._027_
*376 u_rtc\.u_core\._028_
*377 u_rtc\.u_core\._029_
*378 u_rtc\.u_core\._030_
*379 u_rtc\.u_core\._031_
*380 u_rtc\.u_core\._032_
*381 u_rtc\.u_core\._033_
*382 u_rtc\.u_core\._034_
*383 u_rtc\.u_core\._035_
*384 u_rtc\.u_core\._036_
*385 u_rtc\.u_core\._037_
*386 u_rtc\.u_core\._038_
*387 u_rtc\.u_core\._039_
*388 u_rtc\.u_core\._040_
*389 u_rtc\.u_core\._041_
*390 u_rtc\.u_core\._042_
*391 u_rtc\.u_core\._043_
*392 u_rtc\.u_core\._044_
*393 u_rtc\.u_core\._045_
*394 u_rtc\.u_core\._046_
*395 u_rtc\.u_core\._047_
*396 u_rtc\.u_core\._048_
*397 u_rtc\.u_core\._049_
*398 u_rtc\.u_core\._050_
*399 u_rtc\.u_core\._051_
*400 u_rtc\.u_core\._052_
*401 u_rtc\.u_core\._053_
*402 u_rtc\.u_core\._054_
*403 u_rtc\.u_core\._055_
*404 u_rtc\.u_core\._056_
*405 u_rtc\.u_core\._057_
*406 u_rtc\.u_core\._058_
*407 u_rtc\.u_core\._059_
*408 u_rtc\.u_core\._060_
*409 u_rtc\.u_core\._061_
*410 u_rtc\.u_core\._062_
*411 u_rtc\.u_core\._063_
*412 u_rtc\.u_core\._064_
*413 u_rtc\.u_core\._065_
*414 u_rtc\.u_core\._066_
*415 u_rtc\.u_core\._067_
*416 u_rtc\.u_core\._068_
*417 u_rtc\.u_core\._069_
*418 u_rtc\.u_core\._070_
*419 u_rtc\.u_core\._071_
*420 u_rtc\.u_core\._072_
*421 u_rtc\.u_core\._073_
*422 u_rtc\.u_core\._074_
*423 u_rtc\.u_core\._075_
*424 u_rtc\.u_core\._076_
*425 u_rtc\.u_core\._077_
*426 u_rtc\.u_core\._078_
*427 u_rtc\.u_core\._079_
*428 u_rtc\.u_core\._080_
*429 u_rtc\.u_core\._081_
*430 u_rtc\.u_core\._082_
*431 u_rtc\.u_core\._083_
*432 u_rtc\.u_core\._084_
*433 u_rtc\.u_core\._085_
*434 u_rtc\.u_core\._086_
*435 u_rtc\.u_core\._087_
*436 u_rtc\.u_core\._088_
*437 u_rtc\.u_core\._089_
*438 u_rtc\.u_core\._090_
*439 u_rtc\.u_core\._091_
*440 u_rtc\.u_core\._092_
*441 u_rtc\.u_core\._093_
*442 u_rtc\.u_core\._094_
*443 u_rtc\.u_core\._095_
*444 u_rtc\.u_core\._096_
*445 u_rtc\.u_core\._097_
*446 u_rtc\.u_core\._098_
*447 u_rtc\.u_core\._099_
*448 u_rtc\.u_core\._100_
*449 u_rtc\.u_core\._101_
*450 u_rtc\.u_core\._102_
*451 u_rtc\.u_core\._103_
*452 u_rtc\.u_core\._104_
*453 u_rtc\.u_core\._105_
*454 u_rtc\.u_core\._106_
*455 u_rtc\.u_core\._107_
*456 u_rtc\.u_core\._108_
*457 u_rtc\.u_core\._109_
*458 u_rtc\.u_core\._110_
*459 u_rtc\.u_core\._111_
*460 u_rtc\.u_core\._112_
*461 u_rtc\.u_core\._113_
*462 u_rtc\.u_core\._114_
*463 u_rtc\.u_core\._115_
*464 u_rtc\.u_core\._116_
*465 u_rtc\.u_core\._117_
*466 u_rtc\.u_core\._118_
*467 u_rtc\.u_core\._119_
*468 u_rtc\.u_core\._120_
*469 u_rtc\.u_core\._121_
*470 u_rtc\.u_core\._122_
*471 u_rtc\.u_core\._123_
*472 u_rtc\.u_core\._124_
*473 u_rtc\.u_core\._125_
*474 u_rtc\.u_core\._126_
*475 u_rtc\.u_core\._127_
*476 u_rtc\.u_core\._128_
*477 u_rtc\.u_core\._129_
*478 u_rtc\.u_core\._130_
*479 u_rtc\.u_core\._131_
*480 u_rtc\.u_core\._132_
*481 u_rtc\.u_core\._133_
*482 u_rtc\.u_core\._134_
*483 u_rtc\.u_core\._135_
*484 u_rtc\.u_core\._136_
*485 u_rtc\.u_core\._137_
*486 u_rtc\.u_core\._138_
*487 u_rtc\.u_core\._139_
*488 u_rtc\.u_core\._140_
*489 u_rtc\.u_core\._141_
*490 u_rtc\.u_core\._142_
*491 u_rtc\.u_core\._143_
*492 u_rtc\.u_core\._144_
*493 u_rtc\.u_core\._145_
*494 u_rtc\.u_core\._146_
*495 u_rtc\.u_core\._147_
*496 u_rtc\.u_core\._148_
*497 u_rtc\.u_core\._149_
*498 u_rtc\.u_core\._150_
*499 u_rtc\.u_core\._151_
*500 u_rtc\.u_core\._152_
*501 u_rtc\.u_core\._153_
*502 u_rtc\.u_core\._154_
*503 u_rtc\.u_core\._155_
*504 u_rtc\.u_core\._156_
*505 u_rtc\.u_core\._157_
*506 u_rtc\.u_core\._158_
*507 u_rtc\.u_core\._159_
*508 u_rtc\.u_core\._160_
*509 u_rtc\.u_core\._161_
*510 u_rtc\.u_core\._162_
*511 u_rtc\.u_core\._163_
*512 u_rtc\.u_core\._164_
*513 u_rtc\.u_core\._165_
*514 u_rtc\.u_core\._166_
*515 u_rtc\.u_core\._167_
*516 u_rtc\.u_core\._168_
*517 u_rtc\.u_core\._169_
*518 u_rtc\.u_core\._170_
*519 u_rtc\.u_core\._171_
*520 u_rtc\.u_core\._172_
*521 u_rtc\.u_core\._173_
*522 u_rtc\.u_core\._174_
*523 u_rtc\.u_core\._175_
*524 u_rtc\.u_core\._176_
*525 u_rtc\.u_core\._177_
*526 u_rtc\.u_core\._178_
*527 u_rtc\.u_core\._179_
*528 u_rtc\.u_core\._180_
*529 u_rtc\.u_core\._181_
*530 u_rtc\.u_core\._182_
*531 u_rtc\.u_core\._183_
*532 u_rtc\.u_core\._184_
*533 u_rtc\.u_core\._185_
*534 u_rtc\.u_core\._186_
*535 u_rtc\.u_core\._187_
*536 u_rtc\.u_core\._188_
*537 u_rtc\.u_core\._189_
*538 u_rtc\.u_core\._190_
*539 u_rtc\.u_core\._191_
*540 u_rtc\.u_core\._192_
*541 u_rtc\.u_core\._193_
*542 u_rtc\.u_core\._194_
*543 u_rtc\.u_core\._195_
*544 u_rtc\.u_core\._196_
*545 u_rtc\.u_core\._197_
*546 u_rtc\.u_core\._198_
*547 u_rtc\.u_core\._199_
*548 u_rtc\.u_core\._200_
*549 u_rtc\.u_core\._201_
*550 u_rtc\.u_core\._202_
*551 u_rtc\.u_core\._203_
*552 u_rtc\.u_core\._204_
*553 u_rtc\.u_core\._205_
*554 u_rtc\.u_core\._206_
*555 u_rtc\.u_core\._207_
*556 u_rtc\.u_core\._208_
*557 u_rtc\.u_core\._209_
*558 u_rtc\.u_core\._210_
*559 u_rtc\.u_core\._211_
*560 u_rtc\.u_core\._212_
*561 u_rtc\.u_core\._213_
*562 u_rtc\.u_core\._214_
*563 u_rtc\.u_core\._215_
*564 u_rtc\.u_core\._216_
*565 u_rtc\.u_core\._217_
*566 u_rtc\.u_core\._218_
*567 u_rtc\.u_core\._219_
*568 u_rtc\.u_core\._220_
*569 u_rtc\.u_core\._221_
*570 u_rtc\.u_core\._222_
*571 u_rtc\.u_core\._223_
*572 u_rtc\.u_core\._224_
*573 u_rtc\.u_core\._225_
*574 u_rtc\.u_core\._226_
*575 u_rtc\.u_core\._227_
*576 u_rtc\.u_core\._228_
*577 u_rtc\.u_core\._229_
*578 u_rtc\.u_core\._230_
*579 u_rtc\.u_core\._231_
*580 u_rtc\.u_core\._232_
*581 u_rtc\.u_core\._233_
*582 u_rtc\.u_core\._234_
*583 u_rtc\.u_core\._235_
*584 u_rtc\.u_core\._236_
*585 u_rtc\.u_core\._237_
*586 u_rtc\.u_core\._238_
*587 u_rtc\.u_core\._239_
*588 u_rtc\.u_core\._240_
*589 u_rtc\.u_core\._241_
*590 u_rtc\.u_core\._242_
*591 u_rtc\.u_core\._243_
*592 u_rtc\.u_core\._244_
*593 u_rtc\.u_core\._245_
*594 u_rtc\.u_core\._246_
*595 u_rtc\.u_core\._247_
*596 u_rtc\.u_core\._248_
*597 u_rtc\.u_core\._249_
*598 u_rtc\.u_core\._250_
*599 u_rtc\.u_core\._251_
*600 u_rtc\.u_core\._252_
*601 u_rtc\.u_core\._253_
*602 u_rtc\.u_core\._254_
*603 u_rtc\.u_core\._255_
*604 u_rtc\.u_core\._256_
*605 u_rtc\.u_core\._257_
*606 u_rtc\.u_core\._258_
*607 u_rtc\.u_core\._259_
*608 u_rtc\.u_core\._260_
*609 u_rtc\.u_core\._261_
*610 u_rtc\.u_core\._262_
*611 u_rtc\.u_core\._263_
*612 u_rtc\.u_core\._264_
*613 u_rtc\.u_core\._265_
*614 u_rtc\.u_core\._266_
*615 u_rtc\.u_core\._267_
*616 u_rtc\.u_core\._268_
*617 u_rtc\.u_core\._269_
*618 u_rtc\.u_core\._270_
*619 u_rtc\.u_core\._271_
*620 u_rtc\.u_core\._272_
*621 u_rtc\.u_core\._273_
*622 u_rtc\.u_core\._274_
*623 u_rtc\.u_core\._275_
*624 u_rtc\.u_core\._276_
*625 u_rtc\.u_core\._277_
*626 u_rtc\.u_core\._278_
*627 u_rtc\.u_core\._279_
*628 u_rtc\.u_core\._280_
*629 u_rtc\.u_core\._281_
*630 u_rtc\.u_core\._282_
*631 u_rtc\.u_core\._283_
*632 u_rtc\.u_core\._284_
*633 u_rtc\.u_core\._285_
*634 u_rtc\.u_core\._286_
*635 u_rtc\.u_core\._287_
*636 u_rtc\.u_core\._288_
*637 u_rtc\.u_core\._289_
*638 u_rtc\.u_core\._290_
*639 u_rtc\.u_core\._291_
*640 u_rtc\.u_core\._292_
*641 u_rtc\.u_core\._293_
*642 u_rtc\.u_core\._294_
*643 u_rtc\.u_core\._295_
*644 u_rtc\.u_core\._296_
*645 u_rtc\.u_core\._297_
*646 u_rtc\.u_core\._298_
*647 u_rtc\.u_core\._299_
*648 u_rtc\.u_core\._300_
*649 u_rtc\.u_core\._301_
*650 u_rtc\.u_core\._302_
*651 u_rtc\.u_core\._303_
*652 u_rtc\.u_core\._304_
*653 u_rtc\.u_core\._305_
*654 u_rtc\.u_core\._306_
*655 u_rtc\.u_core\._307_
*656 u_rtc\.u_core\._308_
*657 u_rtc\.u_core\._309_
*658 u_rtc\.u_core\._310_
*659 u_rtc\.u_core\._311_
*660 u_rtc\.u_core\._312_
*661 u_rtc\.u_core\._313_
*662 u_rtc\.u_core\._314_
*663 u_rtc\.u_core\._315_
*664 u_rtc\.u_core\._316_
*665 u_rtc\.u_core\._317_
*666 u_rtc\.u_core\._318_
*667 u_rtc\.u_core\._319_
*668 u_rtc\.u_core\._320_
*669 u_rtc\.u_core\._321_
*670 u_rtc\.u_core\._322_
*671 u_rtc\.u_core\._323_
*672 u_rtc\.u_core\._324_
*673 u_rtc\.u_core\._325_
*674 u_rtc\.u_core\._326_
*675 u_rtc\.u_core\._327_
*676 u_rtc\.u_core\._328_
*677 u_rtc\.u_core\._329_
*678 u_rtc\.u_core\._330_
*679 u_rtc\.u_core\._331_
*680 u_rtc\.u_core\._332_
*681 u_rtc\.u_core\._333_
*682 u_rtc\.u_core\._334_
*683 u_rtc\.u_core\._335_
*684 u_rtc\.u_core\._336_
*685 u_rtc\.u_core\._337_
*686 u_rtc\.u_core\._338_
*687 u_rtc\.u_core\._339_
*688 u_rtc\.u_core\._340_
*689 u_rtc\.u_core\._341_
*690 u_rtc\.u_core\._342_
*691 u_rtc\.u_core\._343_
*692 u_rtc\.u_core\._344_
*693 u_rtc\.u_core\._345_
*694 u_rtc\.u_core\._346_
*695 u_rtc\.u_core\._347_
*696 u_rtc\.u_core\._348_
*697 u_rtc\.u_core\._349_
*698 u_rtc\.u_core\._350_
*699 u_rtc\.u_core\._351_
*700 u_rtc\.u_core\._352_
*701 u_rtc\.u_core\._353_
*702 u_rtc\.u_core\._354_
*703 u_rtc\.u_core\._355_
*704 u_rtc\.u_core\._356_
*705 u_rtc\.u_core\._357_
*706 u_rtc\.u_core\._358_
*707 u_rtc\.u_core\._359_
*708 u_rtc\.u_core\._360_
*709 u_rtc\.u_core\._361_
*710 u_rtc\.u_core\._362_
*711 u_rtc\.u_core\._363_
*712 u_rtc\.u_core\._364_
*713 u_rtc\.u_core\._365_
*714 u_rtc\.u_core\._366_
*715 u_rtc\.u_core\._367_
*716 u_rtc\.u_core\._368_
*717 u_rtc\.u_core\._369_
*718 u_rtc\.u_core\._370_
*719 u_rtc\.u_core\._371_
*720 u_rtc\.u_core\._372_
*721 u_rtc\.u_core\._373_
*722 u_rtc\.u_core\._374_
*723 u_rtc\.u_core\._375_
*724 u_rtc\.u_core\._376_
*725 u_rtc\.u_core\._377_
*726 u_rtc\.u_core\._378_
*727 u_rtc\.u_core\._379_
*728 u_rtc\.u_core\._380_
*729 u_rtc\.u_core\._381_
*730 u_rtc\.u_core\._382_
*731 u_rtc\.u_core\._383_
*732 u_rtc\.u_core\._384_
*733 u_rtc\.u_core\._385_
*734 u_rtc\.u_core\._386_
*735 u_rtc\.u_core\._387_
*736 u_rtc\.u_core\._388_
*737 u_rtc\.u_core\._389_
*738 u_rtc\.u_core\._390_
*739 u_rtc\.u_core\._391_
*740 u_rtc\.u_core\._392_
*741 u_rtc\.u_core\._393_
*742 u_rtc\.u_core\._394_
*743 u_rtc\.u_core\._395_
*744 u_rtc\.u_core\._396_
*745 u_rtc\.u_core\._397_
*746 u_rtc\.u_core\._398_
*747 u_rtc\.u_core\._399_
*748 u_rtc\.u_core\.pulse_1s
*749 u_rtc\.u_core\.rtc_div\[0\]
*750 u_rtc\.u_core\.rtc_div\[10\]
*751 u_rtc\.u_core\.rtc_div\[11\]
*752 u_rtc\.u_core\.rtc_div\[12\]
*753 u_rtc\.u_core\.rtc_div\[13\]
*754 u_rtc\.u_core\.rtc_div\[14\]
*755 u_rtc\.u_core\.rtc_div\[1\]
*756 u_rtc\.u_core\.rtc_div\[2\]
*757 u_rtc\.u_core\.rtc_div\[3\]
*758 u_rtc\.u_core\.rtc_div\[4\]
*759 u_rtc\.u_core\.rtc_div\[5\]
*760 u_rtc\.u_core\.rtc_div\[6\]
*761 u_rtc\.u_core\.rtc_div\[7\]
*762 u_rtc\.u_core\.rtc_div\[8\]
*763 u_rtc\.u_core\.rtc_div\[9\]
*764 u_rtc\.u_reg\._0000_
*765 u_rtc\.u_reg\._0001_
*766 u_rtc\.u_reg\._0002_
*767 u_rtc\.u_reg\._0003_
*768 u_rtc\.u_reg\._0009_
*769 u_rtc\.u_reg\._0010_
*770 u_rtc\.u_reg\._0011_
*771 u_rtc\.u_reg\._0012_
*772 u_rtc\.u_reg\._0013_
*773 u_rtc\.u_reg\._0017_
*774 u_rtc\.u_reg\._0018_
*775 u_rtc\.u_reg\._0019_
*776 u_rtc\.u_reg\._0020_
*777 u_rtc\.u_reg\._0021_
*778 u_rtc\.u_reg\._0022_
*779 u_rtc\.u_reg\._0023_
*780 u_rtc\.u_reg\._0024_
*781 u_rtc\.u_reg\._0025_
*782 u_rtc\.u_reg\._0026_
*783 u_rtc\.u_reg\._0027_
*784 u_rtc\.u_reg\._0028_
*785 u_rtc\.u_reg\._0029_
*786 u_rtc\.u_reg\._0030_
*787 u_rtc\.u_reg\._0031_
*788 u_rtc\.u_reg\._0032_
*789 u_rtc\.u_reg\._0033_
*790 u_rtc\.u_reg\._0034_
*791 u_rtc\.u_reg\._0035_
*792 u_rtc\.u_reg\._0036_
*793 u_rtc\.u_reg\._0037_
*794 u_rtc\.u_reg\._0038_
*795 u_rtc\.u_reg\._0039_
*796 u_rtc\.u_reg\._0040_
*797 u_rtc\.u_reg\._0041_
*798 u_rtc\.u_reg\._0042_
*799 u_rtc\.u_reg\._0057_
*800 u_rtc\.u_reg\._0058_
*801 u_rtc\.u_reg\._0059_
*802 u_rtc\.u_reg\._0060_
*803 u_rtc\.u_reg\._0061_
*804 u_rtc\.u_reg\._0062_
*805 u_rtc\.u_reg\._0063_
*806 u_rtc\.u_reg\._0064_
*807 u_rtc\.u_reg\._0065_
*808 u_rtc\.u_reg\._0066_
*809 u_rtc\.u_reg\._0081_
*810 u_rtc\.u_reg\._0082_
*811 u_rtc\.u_reg\._0083_
*812 u_rtc\.u_reg\._0084_
*813 u_rtc\.u_reg\._0085_
*814 u_rtc\.u_reg\._0087_
*815 u_rtc\.u_reg\._0088_
*816 u_rtc\.u_reg\._0090_
*817 u_rtc\.u_reg\._0091_
*818 u_rtc\.u_reg\._0092_
*819 u_rtc\.u_reg\._0093_
*820 u_rtc\.u_reg\._0094_
*821 u_rtc\.u_reg\._0095_
*822 u_rtc\.u_reg\._0096_
*823 u_rtc\.u_reg\._0098_
*824 u_rtc\.u_reg\._0099_
*825 u_rtc\.u_reg\._0100_
*826 u_rtc\.u_reg\._0101_
*827 u_rtc\.u_reg\._0102_
*828 u_rtc\.u_reg\._0103_
*829 u_rtc\.u_reg\._0107_
*830 u_rtc\.u_reg\._0108_
*831 u_rtc\.u_reg\._0109_
*832 u_rtc\.u_reg\._0110_
*833 u_rtc\.u_reg\._0111_
*834 u_rtc\.u_reg\._0112_
*835 u_rtc\.u_reg\._0113_
*836 u_rtc\.u_reg\._0114_
*837 u_rtc\.u_reg\._0115_
*838 u_rtc\.u_reg\._0116_
*839 u_rtc\.u_reg\._0117_
*840 u_rtc\.u_reg\._0118_
*841 u_rtc\.u_reg\._0119_
*842 u_rtc\.u_reg\._0120_
*843 u_rtc\.u_reg\._0121_
*844 u_rtc\.u_reg\._0123_
*845 u_rtc\.u_reg\._0124_
*846 u_rtc\.u_reg\._0125_
*847 u_rtc\.u_reg\._0126_
*848 u_rtc\.u_reg\._0127_
*849 u_rtc\.u_reg\._0128_
*850 u_rtc\.u_reg\._0129_
*851 u_rtc\.u_reg\._0131_
*852 u_rtc\.u_reg\._0132_
*853 u_rtc\.u_reg\._0133_
*854 u_rtc\.u_reg\._0134_
*855 u_rtc\.u_reg\._0135_
*856 u_rtc\.u_reg\._0136_
*857 u_rtc\.u_reg\._0139_
*858 u_rtc\.u_reg\._0140_
*859 u_rtc\.u_reg\._0141_
*860 u_rtc\.u_reg\._0142_
*861 u_rtc\.u_reg\._0143_
*862 u_rtc\.u_reg\._0144_
*863 u_rtc\.u_reg\._0145_
*864 u_rtc\.u_reg\._0147_
*865 u_rtc\.u_reg\._0148_
*866 u_rtc\.u_reg\._0224_
*867 u_rtc\.u_reg\._0225_
*868 u_rtc\.u_reg\._0226_
*869 u_rtc\.u_reg\._0227_
*870 u_rtc\.u_reg\._0228_
*871 u_rtc\.u_reg\._0229_
*872 u_rtc\.u_reg\._0230_
*873 u_rtc\.u_reg\._0231_
*874 u_rtc\.u_reg\._0232_
*875 u_rtc\.u_reg\._0233_
*876 u_rtc\.u_reg\._0234_
*877 u_rtc\.u_reg\._0235_
*878 u_rtc\.u_reg\._0236_
*879 u_rtc\.u_reg\._0237_
*880 u_rtc\.u_reg\._0238_
*881 u_rtc\.u_reg\._0239_
*882 u_rtc\.u_reg\._0240_
*883 u_rtc\.u_reg\._0241_
*884 u_rtc\.u_reg\._0242_
*885 u_rtc\.u_reg\._0243_
*886 u_rtc\.u_reg\._0244_
*887 u_rtc\.u_reg\._0245_
*888 u_rtc\.u_reg\._0246_
*889 u_rtc\.u_reg\._0247_
*890 u_rtc\.u_reg\._0248_
*891 u_rtc\.u_reg\._0249_
*892 u_rtc\.u_reg\._0250_
*893 u_rtc\.u_reg\._0251_
*894 u_rtc\.u_reg\._0252_
*895 u_rtc\.u_reg\._0253_
*896 u_rtc\.u_reg\._0254_
*897 u_rtc\.u_reg\._0255_
*898 u_rtc\.u_reg\._0256_
*899 u_rtc\.u_reg\._0259_
*900 u_rtc\.u_reg\._0260_
*901 u_rtc\.u_reg\._0261_
*902 u_rtc\.u_reg\._0262_
*903 u_rtc\.u_reg\._0263_
*904 u_rtc\.u_reg\._0267_
*905 u_rtc\.u_reg\._0268_
*906 u_rtc\.u_reg\._0274_
*907 u_rtc\.u_reg\._0289_
*908 u_rtc\.u_reg\._0290_
*909 u_rtc\.u_reg\._0291_
*910 u_rtc\.u_reg\._0292_
*911 u_rtc\.u_reg\._0293_
*912 u_rtc\.u_reg\._0294_
*913 u_rtc\.u_reg\._0295_
*914 u_rtc\.u_reg\._0296_
*915 u_rtc\.u_reg\._0297_
*916 u_rtc\.u_reg\._0298_
*917 u_rtc\.u_reg\._0299_
*918 u_rtc\.u_reg\._0300_
*919 u_rtc\.u_reg\._0301_
*920 u_rtc\.u_reg\._0302_
*921 u_rtc\.u_reg\._0303_
*922 u_rtc\.u_reg\._0304_
*923 u_rtc\.u_reg\._0305_
*924 u_rtc\.u_reg\._0306_
*925 u_rtc\.u_reg\._0307_
*926 u_rtc\.u_reg\._0308_
*927 u_rtc\.u_reg\._0309_
*928 u_rtc\.u_reg\._0310_
*929 u_rtc\.u_reg\._0311_
*930 u_rtc\.u_reg\._0312_
*931 u_rtc\.u_reg\._0313_
*932 u_rtc\.u_reg\._0314_
*933 u_rtc\.u_reg\._0315_
*934 u_rtc\.u_reg\._0316_
*935 u_rtc\.u_reg\._0317_
*936 u_rtc\.u_reg\._0318_
*937 u_rtc\.u_reg\._0319_
*938 u_rtc\.u_reg\._0320_
*939 u_rtc\.u_reg\._0321_
*940 u_rtc\.u_reg\._0322_
*941 u_rtc\.u_reg\._0323_
*942 u_rtc\.u_reg\._0324_
*943 u_rtc\.u_reg\._0325_
*944 u_rtc\.u_reg\._0326_
*945 u_rtc\.u_reg\._0327_
*946 u_rtc\.u_reg\._0328_
*947 u_rtc\.u_reg\._0329_
*948 u_rtc\.u_reg\._0330_
*949 u_rtc\.u_reg\._0331_
*950 u_rtc\.u_reg\._0332_
*951 u_rtc\.u_reg\._0333_
*952 u_rtc\.u_reg\._0334_
*953 u_rtc\.u_reg\._0335_
*954 u_rtc\.u_reg\._0336_
*955 u_rtc\.u_reg\._0337_
*956 u_rtc\.u_reg\._0338_
*957 u_rtc\.u_reg\._0339_
*958 u_rtc\.u_reg\._0340_
*959 u_rtc\.u_reg\._0341_
*960 u_rtc\.u_reg\._0342_
*961 u_rtc\.u_reg\._0343_
*962 u_rtc\.u_reg\._0344_
*963 u_rtc\.u_reg\._0345_
*964 u_rtc\.u_reg\._0346_
*965 u_rtc\.u_reg\._0347_
*966 u_rtc\.u_reg\._0348_
*967 u_rtc\.u_reg\._0349_
*968 u_rtc\.u_reg\._0350_
*969 u_rtc\.u_reg\._0351_
*970 u_rtc\.u_reg\._0352_
*971 u_rtc\.u_reg\._0353_
*972 u_rtc\.u_reg\._0354_
*973 u_rtc\.u_reg\._0355_
*974 u_rtc\.u_reg\._0356_
*975 u_rtc\.u_reg\._0357_
*976 u_rtc\.u_reg\._0358_
*977 u_rtc\.u_reg\._0359_
*978 u_rtc\.u_reg\._0360_
*979 u_rtc\.u_reg\._0361_
*980 u_rtc\.u_reg\._0362_
*981 u_rtc\.u_reg\._0363_
*982 u_rtc\.u_reg\._0364_
*983 u_rtc\.u_reg\._0365_
*984 u_rtc\.u_reg\._0366_
*985 u_rtc\.u_reg\._0367_
*986 u_rtc\.u_reg\._0368_
*987 u_rtc\.u_reg\._0369_
*988 u_rtc\.u_reg\._0370_
*989 u_rtc\.u_reg\._0371_
*990 u_rtc\.u_reg\._0372_
*991 u_rtc\.u_reg\._0373_
*992 u_rtc\.u_reg\._0374_
*993 u_rtc\.u_reg\._0375_
*994 u_rtc\.u_reg\._0376_
*995 u_rtc\.u_reg\._0377_
*996 u_rtc\.u_reg\._0378_
*997 u_rtc\.u_reg\._0379_
*998 u_rtc\.u_reg\._0380_
*999 u_rtc\.u_reg\._0381_
*1000 u_rtc\.u_reg\._0382_
*1001 u_rtc\.u_reg\._0383_
*1002 u_rtc\.u_reg\._0384_
*1003 u_rtc\.u_reg\._0385_
*1004 u_rtc\.u_reg\._0386_
*1005 u_rtc\.u_reg\._0387_
*1006 u_rtc\.u_reg\._0388_
*1007 u_rtc\.u_reg\._0389_
*1008 u_rtc\.u_reg\._0390_
*1009 u_rtc\.u_reg\._0391_
*1010 u_rtc\.u_reg\._0392_
*1011 u_rtc\.u_reg\._0393_
*1012 u_rtc\.u_reg\._0394_
*1013 u_rtc\.u_reg\._0395_
*1014 u_rtc\.u_reg\._0396_
*1015 u_rtc\.u_reg\._0397_
*1016 u_rtc\.u_reg\._0403_
*1017 u_rtc\.u_reg\._0404_
*1018 u_rtc\.u_reg\._0405_
*1019 u_rtc\.u_reg\._0406_
*1020 u_rtc\.u_reg\._0407_
*1021 u_rtc\.u_reg\._0408_
*1022 u_rtc\.u_reg\._0409_
*1023 u_rtc\.u_reg\._0410_
*1024 u_rtc\.u_reg\._0411_
*1025 u_rtc\.u_reg\._0412_
*1026 u_rtc\.u_reg\._0414_
*1027 u_rtc\.u_reg\._0415_
*1028 u_rtc\.u_reg\._0416_
*1029 u_rtc\.u_reg\._0417_
*1030 u_rtc\.u_reg\._0418_
*1031 u_rtc\.u_reg\._0419_
*1032 u_rtc\.u_reg\._0420_
*1033 u_rtc\.u_reg\._0421_
*1034 u_rtc\.u_reg\._0422_
*1035 u_rtc\.u_reg\._0423_
*1036 u_rtc\.u_reg\._0424_
*1037 u_rtc\.u_reg\._0425_
*1038 u_rtc\.u_reg\._0426_
*1039 u_rtc\.u_reg\._0427_
*1040 u_rtc\.u_reg\._0428_
*1041 u_rtc\.u_reg\._0429_
*1042 u_rtc\.u_reg\._0430_
*1043 u_rtc\.u_reg\._0431_
*1044 u_rtc\.u_reg\._0432_
*1045 u_rtc\.u_reg\._0433_
*1046 u_rtc\.u_reg\._0434_
*1047 u_rtc\.u_reg\._0435_
*1048 u_rtc\.u_reg\._0436_
*1049 u_rtc\.u_reg\._0437_
*1050 u_rtc\.u_reg\._0438_
*1051 u_rtc\.u_reg\._0439_
*1052 u_rtc\.u_reg\._0440_
*1053 u_rtc\.u_reg\._0441_
*1054 u_rtc\.u_reg\._0442_
*1055 u_rtc\.u_reg\._0443_
*1056 u_rtc\.u_reg\._0448_
*1057 u_rtc\.u_reg\._0449_
*1058 u_rtc\.u_reg\._0450_
*1059 u_rtc\.u_reg\._0451_
*1060 u_rtc\.u_reg\._0452_
*1061 u_rtc\.u_reg\._0453_
*1062 u_rtc\.u_reg\._0454_
*1063 u_rtc\.u_reg\._0455_
*1064 u_rtc\.u_reg\._0456_
*1065 u_rtc\.u_reg\._0457_
*1066 u_rtc\.u_reg\._0458_
*1067 u_rtc\.u_reg\._0459_
*1068 u_rtc\.u_reg\._0460_
*1069 u_rtc\.u_reg\._0465_
*1070 u_rtc\.u_reg\._0467_
*1071 u_rtc\.u_reg\._0468_
*1072 u_rtc\.u_reg\._0469_
*1073 u_rtc\.u_reg\._0471_
*1074 u_rtc\.u_reg\._0472_
*1075 u_rtc\.u_reg\._0476_
*1076 u_rtc\.u_reg\._0477_
*1077 u_rtc\.u_reg\._0478_
*1078 u_rtc\.u_reg\._0479_
*1079 u_rtc\.u_reg\._0480_
*1080 u_rtc\.u_reg\._0481_
*1081 u_rtc\.u_reg\._0482_
*1082 u_rtc\.u_reg\._0483_
*1083 u_rtc\.u_reg\._0484_
*1084 u_rtc\.u_reg\._0485_
*1085 u_rtc\.u_reg\._0486_
*1086 u_rtc\.u_reg\._0487_
*1087 u_rtc\.u_reg\._0488_
*1088 u_rtc\.u_reg\._0489_
*1089 u_rtc\.u_reg\._0490_
*1090 u_rtc\.u_reg\._0491_
*1091 u_rtc\.u_reg\._0492_
*1092 u_rtc\.u_reg\._0493_
*1093 u_rtc\.u_reg\._0494_
*1094 u_rtc\.u_reg\._0495_
*1095 u_rtc\.u_reg\._0499_
*1096 u_rtc\.u_reg\._0500_
*1097 u_rtc\.u_reg\._0501_
*1098 u_rtc\.u_reg\._0502_
*1099 u_rtc\.u_reg\._0503_
*1100 u_rtc\.u_reg\._0504_
*1101 u_rtc\.u_reg\._0505_
*1102 u_rtc\.u_reg\._0506_
*1103 u_rtc\.u_reg\._0507_
*1104 u_rtc\.u_reg\._0508_
*1105 u_rtc\.u_reg\._0509_
*1106 u_rtc\.u_reg\._0511_
*1107 u_rtc\.u_reg\._0512_
*1108 u_rtc\.u_reg\._0513_
*1109 u_rtc\.u_reg\._0514_
*1110 u_rtc\.u_reg\._0515_
*1111 u_rtc\.u_reg\._0517_
*1112 u_rtc\.u_reg\._0518_
*1113 u_rtc\.u_reg\._0519_
*1114 u_rtc\.u_reg\._0520_
*1115 u_rtc\.u_reg\._0521_
*1116 u_rtc\.u_reg\._0522_
*1117 u_rtc\.u_reg\._0523_
*1118 u_rtc\.u_reg\._0524_
*1119 u_rtc\.u_reg\._0525_
*1120 u_rtc\.u_reg\._0526_
*1121 u_rtc\.u_reg\._0527_
*1122 u_rtc\.u_reg\._0528_
*1123 u_rtc\.u_reg\._0529_
*1124 u_rtc\.u_reg\._0530_
*1125 u_rtc\.u_reg\._0531_
*1126 u_rtc\.u_reg\._0532_
*1127 u_rtc\.u_reg\._0533_
*1128 u_rtc\.u_reg\._0534_
*1129 u_rtc\.u_reg\._0535_
*1130 u_rtc\.u_reg\._0536_
*1131 u_rtc\.u_reg\._0537_
*1132 u_rtc\.u_reg\._0538_
*1133 u_rtc\.u_reg\._0539_
*1134 u_rtc\.u_reg\._0540_
*1135 u_rtc\.u_reg\._0541_
*1136 u_rtc\.u_reg\._0542_
*1137 u_rtc\.u_reg\._0543_
*1138 u_rtc\.u_reg\._0544_
*1139 u_rtc\.u_reg\.cfg_alarm1\[0\]
*1140 u_rtc\.u_reg\.cfg_alarm1\[10\]
*1141 u_rtc\.u_reg\.cfg_alarm1\[11\]
*1142 u_rtc\.u_reg\.cfg_alarm1\[12\]
*1143 u_rtc\.u_reg\.cfg_alarm1\[13\]
*1144 u_rtc\.u_reg\.cfg_alarm1\[14\]
*1145 u_rtc\.u_reg\.cfg_alarm1\[15\]
*1146 u_rtc\.u_reg\.cfg_alarm1\[16\]
*1147 u_rtc\.u_reg\.cfg_alarm1\[17\]
*1148 u_rtc\.u_reg\.cfg_alarm1\[1\]
*1149 u_rtc\.u_reg\.cfg_alarm1\[2\]
*1150 u_rtc\.u_reg\.cfg_alarm1\[3\]
*1151 u_rtc\.u_reg\.cfg_alarm1\[4\]
*1152 u_rtc\.u_reg\.cfg_alarm1\[5\]
*1153 u_rtc\.u_reg\.cfg_alarm1\[6\]
*1154 u_rtc\.u_reg\.cfg_alarm1\[8\]
*1155 u_rtc\.u_reg\.cfg_alarm1\[9\]
*1156 u_rtc\.u_reg\.cfg_alarm2\[0\]
*1157 u_rtc\.u_reg\.cfg_alarm2\[10\]
*1158 u_rtc\.u_reg\.cfg_alarm2\[11\]
*1159 u_rtc\.u_reg\.cfg_alarm2\[12\]
*1160 u_rtc\.u_reg\.cfg_alarm2\[13\]
*1161 u_rtc\.u_reg\.cfg_alarm2\[14\]
*1162 u_rtc\.u_reg\.cfg_alarm2\[15\]
*1163 u_rtc\.u_reg\.cfg_alarm2\[16\]
*1164 u_rtc\.u_reg\.cfg_alarm2\[17\]
*1165 u_rtc\.u_reg\.cfg_alarm2\[1\]
*1166 u_rtc\.u_reg\.cfg_alarm2\[2\]