*SPEF "ieee 1481-1999"
*DESIGN "riscv_top"
*DATE "11:11:11 Fri 11 11, 1111"
*VENDOR "OpenRCX"
*PROGRAM "Parallel Extraction"
*VERSION "1.0"
*DESIGN_FLOW "NAME_SCOPE LOCAL" "PIN_CAP NONE"
*DIVIDER /
*DELIMITER :
*BUS_DELIMITER []
*T_UNIT 1 NS
*C_UNIT 1 PF
*R_UNIT 1 OHM
*L_UNIT 1 HENRY

*NAME_MAP
*1 clk
*2 compare_in[0]
*3 compare_in[10]
*4 compare_in[11]
*5 compare_in[12]
*6 compare_in[13]
*7 compare_in[14]
*8 compare_in[15]
*9 compare_in[16]
*10 compare_in[17]
*11 compare_in[18]
*12 compare_in[19]
*13 compare_in[1]
*14 compare_in[20]
*15 compare_in[21]
*16 compare_in[22]
*17 compare_in[23]
*18 compare_in[2]
*19 compare_in[3]
*20 compare_in[4]
*21 compare_in[5]
*22 compare_in[6]
*23 compare_in[7]
*24 compare_in[8]
*25 compare_in[9]
*26 net34
*27 net35
*28 net36
*29 net37
*30 net38
*31 net39
*32 net40
*33 led_out[0]
*34 led_out[1]
*35 led_out[2]
*36 led_out[3]
*37 led_out[4]
*38 led_out[5]
*39 led_out[6]
*40 reset
*41 update_compare
*44 _000_
*45 _001_
*46 _002_
*47 _003_
*48 _004_
*49 _005_
*50 _006_
*51 _007_
*52 _008_
*53 _009_
*54 _010_
*55 _011_
*56 _012_
*57 _013_
*58 _014_
*59 _015_
*60 _016_
*61 _017_
*62 _018_
*63 _019_
*64 _020_
*65 _021_
*66 _022_
*67 _023_
*68 _024_
*69 _025_
*70 _026_
*71 _027_
*72 _028_
*73 _029_
*74 _030_
*75 _031_
*76 _032_
*77 _033_
*78 _034_
*79 _035_
*80 _036_
*81 _037_
*82 _038_
*83 _039_
*84 _040_
*85 _041_
*86 _042_
*87 _043_
*88 _044_
*89 _045_
*90 _046_
*91 _047_
*92 _048_
*93 _049_
*94 _050_
*95 _051_
*96 _052_
*97 _053_
*98 _054_
*99 _055_
*100 _056_
*101 _057_
*102 _058_
*103 _059_
*104 _060_
*105 _061_
*106 _062_
*107 _063_
*108 _064_
*109 _065_
*110 _066_
*111 _067_
*112 _068_
*113 _069_
*114 _070_
*115 _071_
*116 _072_
*117 _073_
*118 _074_
*119 _075_
*120 _076_
*121 _077_
*122 _078_
*123 _079_
*124 _080_
*125 _081_
*126 _082_
*127 _083_
*128 _084_
*129 _085_
*130 _086_
*131 _087_
*132 _088_
*133 _089_
*134 _090_
*135 _091_
*136 _092_
*137 _093_
*138 _094_
*139 _095_
*140 _096_
*141 _097_
*142 _098_
*143 _099_
*144 _100_
*145 _101_
*146 _102_
*147 _103_
*148 _104_
*149 _105_
*150 _106_
*151 _107_
*152 _108_
*153 _109_
*154 _110_
*155 _111_
*156 _112_
*157 _113_
*158 _114_
*159 _115_
*160 _116_
*161 _117_
*162 _118_
*163 _119_
*164 _120_
*165 _121_
*166 _122_
*167 _123_
*168 _124_
*169 _125_
*170 _126_
*171 _127_
*172 _128_
*173 _129_
*174 _130_
*175 _131_
*176 _132_
*177 _133_
*178 _134_
*179 _135_
*180 _136_
*181 _137_
*182 _138_
*183 _139_
*184 _140_
*185 _141_
*186 _142_
*187 _143_
*188 _144_
*189 _145_
*190 _146_
*191 _147_
*192 _148_
*193 _149_
*194 _150_
*195 _151_
*196 _152_
*197 _153_
*198 _154_
*199 _155_
*200 _156_
*201 _157_
*202 _158_
*203 _159_
*204 _160_
*205 _161_
*206 _162_
*207 _163_
*208 _164_
*209 _165_
*210 _166_
*211 _167_
*212 _168_
*213 _169_
*214 _170_
*215 _171_
*216 _172_
*217 _173_
*218 _174_
*219 _175_
*220 _176_
*221 _177_
*222 _178_
*223 _179_
*224 _180_
*225 _181_
*226 _182_
*227 _183_
*228 _184_
*229 _185_
*230 _186_
*231 _187_
*232 _188_
*233 _189_
*234 _190_
*235 _191_
*236 _192_
*237 _193_
*238 _194_
*239 _195_
*240 _196_
*241 _197_
*242 _198_
*243 _199_
*244 _200_
*245 _201_
*246 _202_
*247 _203_
*248 _204_
*249 _205_
*250 _206_
*251 _207_
*252 _208_
*253 _209_
*254 _210_
*255 _211_
*256 _212_
*257 _213_
*258 _214_
*259 _215_
*260 _216_
*261 _217_
*262 _218_
*263 _219_
*264 _220_
*265 _221_
*266 _222_
*267 _223_
*268 _224_
*269 _225_
*270 _226_
*271 _227_
*272 _228_
*273 _229_
*274 _230_
*275 _231_
*276 _232_
*277 _233_
*278 _234_
*279 _235_
*280 _236_
*281 _237_
*282 _238_
*283 _239_
*284 _240_
*285 _241_
*286 _242_
*287 _243_
*288 _244_
*289 _245_
*290 _246_
*291 _247_
*292 _248_
*293 _249_
*294 _250_
*295 _251_
*296 _252_
*297 _253_
*298 _254_
*299 _255_
*300 _256_
*301 _257_
*302 _258_
*303 _259_
*304 _260_
*305 _261_
*306 _262_
*307 _263_
*308 _264_
*309 _265_
*310 _266_
*311 _267_
*312 _268_
*313 _269_
*314 _270_
*315 _271_
*316 _272_
*317 _273_
*318 _274_
*319 _275_
*320 _276_
*321 _277_
*322 _278_
*323 _279_
*324 _280_
*325 _281_
*326 _282_
*327 _283_
*328 _284_
*329 _285_
*330 _286_
*331 _287_
*332 _288_
*333 _289_
*334 _290_
*335 _291_
*336 _292_
*337 _293_
*338 _294_
*339 _295_
*340 _296_
*341 _297_
*342 _298_
*343 _299_
*344 _300_
*345 _301_
*346 _302_
*347 _303_
*348 _304_
*349 _305_
*350 _306_
*351 _307_
*352 _308_
*353 _309_
*354 _310_
*355 _311_
*356 _312_
*357 _313_
*358 _314_
*359 _315_
*360 _316_
*361 _317_
*362 _318_
*363 _319_
*364 _320_
*365 _321_
*366 _322_
*367 _323_
*368 _324_
*369 _325_
*370 _326_
*371 _327_
*372 _328_
*373 _329_
*374 _330_
*375 _331_
*376 _332_
*377 _333_
*378 _334_
*379 _335_
*380 _336_
*381 _337_
*382 _338_
*383 _339_
*384 _340_
*385 _341_
*386 _342_
*387 _343_
*388 _344_
*389 _345_
*390 _346_
*391 _347_
*392 _348_
*393 _349_
*394 _350_
*395 _351_
*396 _352_
*397 _353_
*398 _354_
*399 _355_
*400 _356_
*401 _357_
*402 _358_
*403 _359_
*404 _360_
*405 _361_
*406 _362_
*407 _363_
*408 _364_
*409 _365_
*410 _366_
*411 _367_
*412 _368_
*413 _369_
*414 _370_
*415 _371_
*416 _372_
*417 _373_
*418 _374_
*419 _375_
*420 _376_
*421 _377_
*422 _378_
*423 _379_
*424 _380_
*425 _381_
*426 _382_
*427 _383_
*428 _384_
*429 _385_
*430 clknet_0_clk
*431 clknet_3_0__leaf_clk
*432 clknet_3_1__leaf_clk
*433 clknet_3_2__leaf_clk
*434 clknet_3_3__leaf_clk
*435 clknet_3_4__leaf_clk
*436 clknet_3_5__leaf_clk
*437 clknet_3_6__leaf_clk
*438 clknet_3_7__leaf_clk
*439 compare\[0\]
*440 compare\[10\]
*441 compare\[11\]
*442 compare\[12\]
*443 compare\[13\]
*444 compare\[14\]
*445 compare\[15\]
*446 compare\[16\]
*447 compare\[17\]
*448 compare\[18\]
*449 compare\[19\]
*450 compare\[1\]
*451 compare\[20\]
*452 compare\[21\]
*453 compare\[22\]
*454 compare\[23\]
*455 compare\[2\]
*456 compare\[3\]
*457 compare\[4\]
*458 compare\[5\]
*459 compare\[6\]
*460 compare\[7\]
*461 compare\[8\]
*462 compare\[9\]
*463 net1
*464 net10
*465 net11
*466 net12
*467 net13
*468 net14
*469 net15
*470 net16
*471 net17
*472 net18
*473 net19
*474 net2
*475 net20
*476 net21
*477 net22
*478 net23
*479 net24
*480 net25
*481 net26
*482 net27
*483 net28
*484 net29
*485 net3
*486 net30
*487 net31
*488 net32
*489 net33
*490 net4
*491 net41
*492 net42
*493 net43
*494 net44
*495 net45
*496 net46
*497 net47
*498 net5
*499 net6
*500 net7
*501 net8
*502 net9
*503 second_counter\[0\]
*504 second_counter\[10\]
*505 second_counter\[11\]
*506 second_counter\[12\]
*507 second_counter\[13\]
*508 second_counter\[14\]
*509 second_counter\[15\]
*510 second_counter\[16\]
*511 second_counter\[17\]
*512 second_counter\[18\]
*513 second_counter\[19\]
*514 second_counter\[1\]
*515 second_counter\[20\]
*516 second_counter\[21\]
*517 second_counter\[22\]
*518 second_counter\[23\]
*519 second_counter\[2\]
*520 second_counter\[3\]
*521 second_counter\[4\]
*522 second_counter\[5\]
*523 second_counter\[6\]
*524 second_counter\[7\]
*525 second_counter\[8\]
*526 second_counter\[9\]
*527 seg7\.counter\[0\]
*528 seg7\.counter\[1\]
*529 seg7\.counter\[2\]
*530 seg7\.counter\[3\]
*531 ANTENNA__386__A2
*532 ANTENNA__387__I
*533 ANTENNA__407__A2
*534 ANTENNA__455__I
*535 ANTENNA__479__B2
*536 ANTENNA__484__B
*537 ANTENNA__514__A2
*538 ANTENNA__522__A2
*539 ANTENNA__535__I
*540 ANTENNA__602__I
*541 ANTENNA__606__B
*542 ANTENNA__608__A1
*543 ANTENNA__611__A1
*544 ANTENNA__614__A1
*545 ANTENNA__631__B
*546 ANTENNA__644__I
*547 ANTENNA__666__B
*548 ANTENNA__672__B
*549 ANTENNA__673__A1
*550 ANTENNA__674__I
*551 ANTENNA__677__A1
*552 ANTENNA__680__A1
*553 ANTENNA__681__A1
*554 ANTENNA__684__A2
*555 ANTENNA__689__I
*556 ANTENNA__690__A2
*557 ANTENNA__695__A1
*558 ANTENNA__695__A2
*559 ANTENNA__698__I
*560 ANTENNA__701__A1
*561 ANTENNA__702__I
*562 ANTENNA__708__A1
*563 ANTENNA__708__A2
*564 ANTENNA__711__A1
*565 ANTENNA__716__A1
*566 ANTENNA__716__A2
*567 ANTENNA__723__A1
*568 ANTENNA__730__A3
*569 ANTENNA__731__I
*570 ANTENNA__732__A2
*571 ANTENNA__733__A2
*572 ANTENNA__736__A1
*573 ANTENNA__738__A1
*574 ANTENNA__739__A1
*575 ANTENNA__740__A3
*576 ANTENNA__740__A4
*577 ANTENNA__742__A1
*578 ANTENNA__747__A1
*579 ANTENNA__748__A1
*580 ANTENNA__748__A2
*581 ANTENNA__750__A1
*582 ANTENNA__751__A2
*583 ANTENNA__757__B
*584 ANTENNA__762__A1
*585 ANTENNA__765__A1
*586 ANTENNA__766__B
*587 ANTENNA__771__A1
*588 ANTENNA__796__CLK
*589 ANTENNA__797__CLK
*590 ANTENNA__815__CLK
*591 ANTENNA__817__CLK
*592 ANTENNA__818__CLK
*593 ANTENNA__819__CLK
*594 ANTENNA__820__CLK
*595 ANTENNA__821__CLK
*596 ANTENNA__822__CLK
*597 ANTENNA_clkbuf_0_clk_I
*598 ANTENNA_clkbuf_3_0__f_clk_I
*599 ANTENNA_clkbuf_3_1__f_clk_I
*600 ANTENNA_clkbuf_3_2__f_clk_I
*601 ANTENNA_clkbuf_3_3__f_clk_I
*602 ANTENNA_clkbuf_3_4__f_clk_I
*603 ANTENNA_clkbuf_3_5__f_clk_I
*604 ANTENNA_clkbuf_3_6__f_clk_I
*605 ANTENNA_clkbuf_3_7__f_clk_I
*606 ANTENNA_input10_I
*607 ANTENNA_input11_I
*608 ANTENNA_input12_I
*609 ANTENNA_input13_I
*610 ANTENNA_input14_I
*611 ANTENNA_input15_I
*612 ANTENNA_input16_I
*613 ANTENNA_input17_I
*614 ANTENNA_input18_I
*615 ANTENNA_input19_I
*616 ANTENNA_input1_I
*617 ANTENNA_input20_I
*618 ANTENNA_input21_I
*619 ANTENNA_input22_I
*620 ANTENNA_input23_I
*621 ANTENNA_input24_I
*622 ANTENNA_input25_I
*623 ANTENNA_input26_I
*624 ANTENNA_input2_I
*625 ANTENNA_input3_I
*626 ANTENNA_input4_I
*627 ANTENNA_input5_I
*628 ANTENNA_input6_I
*629 ANTENNA_input7_I
*630 ANTENNA_input8_I
*631 ANTENNA_input9_I
*632 FILLER_0_0_10
*633 FILLER_0_0_104
*634 FILLER_0_0_12
*635 FILLER_0_0_138
*636 FILLER_0_0_17
*637 FILLER_0_0_172
*638 FILLER_0_0_2
*639 FILLER_0_0_206
*640 FILLER_0_0_240
*641 FILLER_0_0_274
*642 FILLER_0_0_308
*643 FILLER_0_0_324
*644 FILLER_0_0_328
*645 FILLER_0_0_33
*646 FILLER_0_0_330
*647 FILLER_0_0_36
*648 FILLER_0_0_70
*649 FILLER_0_100_101
*650 FILLER_0_100_107
*651 FILLER_0_100_171
*652 FILLER_0_100_177
*653 FILLER_0_100_2
*654 FILLER_0_100_241
*655 FILLER_0_100_247
*656 FILLER_0_100_311
*657 FILLER_0_100_317
*658 FILLER_0_100_325
*659 FILLER_0_100_329
*660 FILLER_0_100_34
*661 FILLER_0_100_37
*662 FILLER_0_101_136
*663 FILLER_0_101_142
*664 FILLER_0_101_2
*665 FILLER_0_101_206
*666 FILLER_0_101_212
*667 FILLER_0_101_276
*668 FILLER_0_101_282
*669 FILLER_0_101_314
*670 FILLER_0_101_330
*671 FILLER_0_101_66
*672 FILLER_0_101_72
*673 FILLER_0_102_101
*674 FILLER_0_102_107
*675 FILLER_0_102_171
*676 FILLER_0_102_177
*677 FILLER_0_102_2
*678 FILLER_0_102_241
*679 FILLER_0_102_247
*680 FILLER_0_102_311
*681 FILLER_0_102_317
*682 FILLER_0_102_325
*683 FILLER_0_102_329
*684 FILLER_0_102_34
*685 FILLER_0_102_37
*686 FILLER_0_103_136
*687 FILLER_0_103_142
*688 FILLER_0_103_2
*689 FILLER_0_103_206
*690 FILLER_0_103_212
*691 FILLER_0_103_276
*692 FILLER_0_103_282
*693 FILLER_0_103_314
*694 FILLER_0_103_330
*695 FILLER_0_103_66
*696 FILLER_0_103_72
*697 FILLER_0_104_101
*698 FILLER_0_104_107
*699 FILLER_0_104_171
*700 FILLER_0_104_177
*701 FILLER_0_104_2
*702 FILLER_0_104_241
*703 FILLER_0_104_247
*704 FILLER_0_104_311
*705 FILLER_0_104_317
*706 FILLER_0_104_325
*707 FILLER_0_104_329
*708 FILLER_0_104_34
*709 FILLER_0_104_37
*710 FILLER_0_105_136
*711 FILLER_0_105_142
*712 FILLER_0_105_2
*713 FILLER_0_105_206
*714 FILLER_0_105_212
*715 FILLER_0_105_276
*716 FILLER_0_105_282
*717 FILLER_0_105_314
*718 FILLER_0_105_330
*719 FILLER_0_105_66
*720 FILLER_0_105_72
*721 FILLER_0_106_101
*722 FILLER_0_106_107
*723 FILLER_0_106_171
*724 FILLER_0_106_177
*725 FILLER_0_106_2
*726 FILLER_0_106_241
*727 FILLER_0_106_247
*728 FILLER_0_106_311
*729 FILLER_0_106_317
*730 FILLER_0_106_325
*731 FILLER_0_106_329
*732 FILLER_0_106_34
*733 FILLER_0_106_37
*734 FILLER_0_107_136
*735 FILLER_0_107_142
*736 FILLER_0_107_2
*737 FILLER_0_107_206
*738 FILLER_0_107_212
*739 FILLER_0_107_276
*740 FILLER_0_107_282
*741 FILLER_0_107_314
*742 FILLER_0_107_330
*743 FILLER_0_107_66
*744 FILLER_0_107_72
*745 FILLER_0_108_101
*746 FILLER_0_108_107
*747 FILLER_0_108_171
*748 FILLER_0_108_177
*749 FILLER_0_108_2
*750 FILLER_0_108_241
*751 FILLER_0_108_247
*752 FILLER_0_108_311
*753 FILLER_0_108_317
*754 FILLER_0_108_325
*755 FILLER_0_108_329
*756 FILLER_0_108_34
*757 FILLER_0_108_37
*758 FILLER_0_109_136
*759 FILLER_0_109_142
*760 FILLER_0_109_2
*761 FILLER_0_109_206
*762 FILLER_0_109_212
*763 FILLER_0_109_276
*764 FILLER_0_109_282
*765 FILLER_0_109_314
*766 FILLER_0_109_330
*767 FILLER_0_109_66
*768 FILLER_0_109_72
*769 FILLER_0_10_101
*770 FILLER_0_10_107
*771 FILLER_0_10_171
*772 FILLER_0_10_177
*773 FILLER_0_10_2
*774 FILLER_0_10_241
*775 FILLER_0_10_247
*776 FILLER_0_10_311
*777 FILLER_0_10_317
*778 FILLER_0_10_325
*779 FILLER_0_10_329
*780 FILLER_0_10_34
*781 FILLER_0_10_37
*782 FILLER_0_110_101
*783 FILLER_0_110_107
*784 FILLER_0_110_171
*785 FILLER_0_110_177
*786 FILLER_0_110_2
*787 FILLER_0_110_241
*788 FILLER_0_110_247
*789 FILLER_0_110_311
*790 FILLER_0_110_317
*791 FILLER_0_110_325
*792 FILLER_0_110_329
*793 FILLER_0_110_34
*794 FILLER_0_110_37
*795 FILLER_0_111_136
*796 FILLER_0_111_142
*797 FILLER_0_111_2
*798 FILLER_0_111_206
*799 FILLER_0_111_212
*800 FILLER_0_111_276
*801 FILLER_0_111_282
*802 FILLER_0_111_314
*803 FILLER_0_111_330
*804 FILLER_0_111_66
*805 FILLER_0_111_72
*806 FILLER_0_112_101
*807 FILLER_0_112_107
*808 FILLER_0_112_171
*809 FILLER_0_112_177
*810 FILLER_0_112_2
*811 FILLER_0_112_241
*812 FILLER_0_112_247
*813 FILLER_0_112_311
*814 FILLER_0_112_317
*815 FILLER_0_112_325
*816 FILLER_0_112_329
*817 FILLER_0_112_34
*818 FILLER_0_112_37
*819 FILLER_0_113_136
*820 FILLER_0_113_142
*821 FILLER_0_113_2
*822 FILLER_0_113_206
*823 FILLER_0_113_212
*824 FILLER_0_113_276
*825 FILLER_0_113_282
*826 FILLER_0_113_314
*827 FILLER_0_113_330
*828 FILLER_0_113_66
*829 FILLER_0_113_72
*830 FILLER_0_114_101
*831 FILLER_0_114_107
*832 FILLER_0_114_171
*833 FILLER_0_114_177
*834 FILLER_0_114_2
*835 FILLER_0_114_241
*836 FILLER_0_114_247
*837 FILLER_0_114_311
*838 FILLER_0_114_317
*839 FILLER_0_114_325
*840 FILLER_0_114_329
*841 FILLER_0_114_34
*842 FILLER_0_114_37
*843 FILLER_0_115_136
*844 FILLER_0_115_142
*845 FILLER_0_115_2
*846 FILLER_0_115_206
*847 FILLER_0_115_212
*848 FILLER_0_115_276
*849 FILLER_0_115_282
*850 FILLER_0_115_314
*851 FILLER_0_115_330
*852 FILLER_0_115_66
*853 FILLER_0_115_72
*854 FILLER_0_116_101
*855 FILLER_0_116_107
*856 FILLER_0_116_171
*857 FILLER_0_116_177
*858 FILLER_0_116_2
*859 FILLER_0_116_241
*860 FILLER_0_116_247
*861 FILLER_0_116_311
*862 FILLER_0_116_317
*863 FILLER_0_116_325
*864 FILLER_0_116_329
*865 FILLER_0_116_34
*866 FILLER_0_116_37
*867 FILLER_0_117_136
*868 FILLER_0_117_142
*869 FILLER_0_117_2
*870 FILLER_0_117_206
*871 FILLER_0_117_212
*872 FILLER_0_117_276
*873 FILLER_0_117_282
*874 FILLER_0_117_314
*875 FILLER_0_117_330
*876 FILLER_0_117_66
*877 FILLER_0_117_72
*878 FILLER_0_118_104
*879 FILLER_0_118_138
*880 FILLER_0_118_172
*881 FILLER_0_118_18
*882 FILLER_0_118_2
*883 FILLER_0_118_206
*884 FILLER_0_118_23
*885 FILLER_0_118_240
*886 FILLER_0_118_274
*887 FILLER_0_118_308
*888 FILLER_0_118_31
*889 FILLER_0_118_324
*890 FILLER_0_118_328
*891 FILLER_0_118_33
*892 FILLER_0_118_330
*893 FILLER_0_118_36
*894 FILLER_0_118_70
*895 FILLER_0_11_136
*896 FILLER_0_11_142
*897 FILLER_0_11_2
*898 FILLER_0_11_206
*899 FILLER_0_11_212
*900 FILLER_0_11_276
*901 FILLER_0_11_282
*902 FILLER_0_11_314
*903 FILLER_0_11_330
*904 FILLER_0_11_66
*905 FILLER_0_11_72
*906 FILLER_0_12_101
*907 FILLER_0_12_107
*908 FILLER_0_12_171
*909 FILLER_0_12_177
*910 FILLER_0_12_2
*911 FILLER_0_12_241
*912 FILLER_0_12_247
*913 FILLER_0_12_311
*914 FILLER_0_12_317
*915 FILLER_0_12_325
*916 FILLER_0_12_329
*917 FILLER_0_12_34
*918 FILLER_0_12_37
*919 FILLER_0_13_136
*920 FILLER_0_13_142
*921 FILLER_0_13_2
*922 FILLER_0_13_206
*923 FILLER_0_13_212
*924 FILLER_0_13_276
*925 FILLER_0_13_282
*926 FILLER_0_13_314
*927 FILLER_0_13_330
*928 FILLER_0_13_66
*929 FILLER_0_13_72
*930 FILLER_0_14_101
*931 FILLER_0_14_107
*932 FILLER_0_14_171
*933 FILLER_0_14_177
*934 FILLER_0_14_2
*935 FILLER_0_14_241
*936 FILLER_0_14_247
*937 FILLER_0_14_311
*938 FILLER_0_14_317
*939 FILLER_0_14_325
*940 FILLER_0_14_329
*941 FILLER_0_14_34
*942 FILLER_0_14_37
*943 FILLER_0_15_136
*944 FILLER_0_15_142
*945 FILLER_0_15_2
*946 FILLER_0_15_206
*947 FILLER_0_15_212
*948 FILLER_0_15_276
*949 FILLER_0_15_282
*950 FILLER_0_15_314
*951 FILLER_0_15_330
*952 FILLER_0_15_66
*953 FILLER_0_15_72
*954 FILLER_0_16_101
*955 FILLER_0_16_107
*956 FILLER_0_16_171
*957 FILLER_0_16_177
*958 FILLER_0_16_2
*959 FILLER_0_16_241
*960 FILLER_0_16_247
*961 FILLER_0_16_311
*962 FILLER_0_16_317
*963 FILLER_0_16_325
*964 FILLER_0_16_329
*965 FILLER_0_16_34
*966 FILLER_0_16_37
*967 FILLER_0_17_136
*968 FILLER_0_17_142
*969 FILLER_0_17_2
*970 FILLER_0_17_206
*971 FILLER_0_17_212
*972 FILLER_0_17_276
*973 FILLER_0_17_282
*974 FILLER_0_17_314
*975 FILLER_0_17_330
*976 FILLER_0_17_66
*977 FILLER_0_17_72
*978 FILLER_0_18_101
*979 FILLER_0_18_107
*980 FILLER_0_18_171
*981 FILLER_0_18_177
*982 FILLER_0_18_2
*983 FILLER_0_18_241
*984 FILLER_0_18_247
*985 FILLER_0_18_311
*986 FILLER_0_18_317
*987 FILLER_0_18_325
*988 FILLER_0_18_329
*989 FILLER_0_18_34
*990 FILLER_0_18_37
*991 FILLER_0_19_136
*992 FILLER_0_19_142
*993 FILLER_0_19_2
*994 FILLER_0_19_206
*995 FILLER_0_19_212
*996 FILLER_0_19_276
*997 FILLER_0_19_282
*998 FILLER_0_19_314
*999 FILLER_0_19_330
*1000 FILLER_0_19_66
*1001 FILLER_0_19_72
*1002 FILLER_0_1_136
*1003 FILLER_0_1_142
*1004 FILLER_0_1_2
*1005 FILLER_0_1_206
*1006 FILLER_0_1_212
*1007 FILLER_0_1_276
*1008 FILLER_0_1_282
*1009 FILLER_0_1_314
*1010 FILLER_0_1_330
*1011 FILLER_0_1_66
*1012 FILLER_0_1_72
*1013 FILLER_0_20_101
*1014 FILLER_0_20_107
*1015 FILLER_0_20_171
*1016 FILLER_0_20_177
*1017 FILLER_0_20_2
*1018 FILLER_0_20_241
*1019 FILLER_0_20_247
*1020 FILLER_0_20_311
*1021 FILLER_0_20_317
*1022 FILLER_0_20_325
*1023 FILLER_0_20_329
*1024 FILLER_0_20_34
*1025 FILLER_0_20_37
*1026 FILLER_0_21_136
*1027 FILLER_0_21_142
*1028 FILLER_0_21_2
*1029 FILLER_0_21_206
*1030 FILLER_0_21_212
*1031 FILLER_0_21_276
*1032 FILLER_0_21_282
*1033 FILLER_0_21_314
*1034 FILLER_0_21_330
*1035 FILLER_0_21_66
*1036 FILLER_0_21_72
*1037 FILLER_0_22_101
*1038 FILLER_0_22_107
*1039 FILLER_0_22_171
*1040 FILLER_0_22_177
*1041 FILLER_0_22_2
*1042 FILLER_0_22_241
*1043 FILLER_0_22_247
*1044 FILLER_0_22_311
*1045 FILLER_0_22_317
*1046 FILLER_0_22_325
*1047 FILLER_0_22_329
*1048 FILLER_0_22_34
*1049 FILLER_0_22_37
*1050 FILLER_0_23_136
*1051 FILLER_0_23_142
*1052 FILLER_0_23_2
*1053 FILLER_0_23_206
*1054 FILLER_0_23_212
*1055 FILLER_0_23_276
*1056 FILLER_0_23_282
*1057 FILLER_0_23_314
*1058 FILLER_0_23_330
*1059 FILLER_0_23_66
*1060 FILLER_0_23_72
*1061 FILLER_0_24_101
*1062 FILLER_0_24_107
*1063 FILLER_0_24_171
*1064 FILLER_0_24_177
*1065 FILLER_0_24_2
*1066 FILLER_0_24_241
*1067 FILLER_0_24_247
*1068 FILLER_0_24_311
*1069 FILLER_0_24_317
*1070 FILLER_0_24_325
*1071 FILLER_0_24_329
*1072 FILLER_0_24_34
*1073 FILLER_0_24_37
*1074 FILLER_0_25_136
*1075 FILLER_0_25_142
*1076 FILLER_0_25_2
*1077 FILLER_0_25_206
*1078 FILLER_0_25_212
*1079 FILLER_0_25_276
*1080 FILLER_0_25_282
*1081 FILLER_0_25_314
*1082 FILLER_0_25_322
*1083 FILLER_0_25_326
*1084 FILLER_0_25_66
*1085 FILLER_0_25_72
*1086 FILLER_0_26_101
*1087 FILLER_0_26_107
*1088 FILLER_0_26_171
*1089 FILLER_0_26_177
*1090 FILLER_0_26_2
*1091 FILLER_0_26_241
*1092 FILLER_0_26_247
*1093 FILLER_0_26_311
*1094 FILLER_0_26_317
*1095 FILLER_0_26_325
*1096 FILLER_0_26_329
*1097 FILLER_0_26_34
*1098 FILLER_0_26_37
*1099 FILLER_0_27_136
*1100 FILLER_0_27_142
*1101 FILLER_0_27_2
*1102 FILLER_0_27_206
*1103 FILLER_0_27_212
*1104 FILLER_0_27_276
*1105 FILLER_0_27_282
*1106 FILLER_0_27_314
*1107 FILLER_0_27_330
*1108 FILLER_0_27_66
*1109 FILLER_0_27_72
*1110 FILLER_0_28_101
*1111 FILLER_0_28_107
*1112 FILLER_0_28_171
*1113 FILLER_0_28_177
*1114 FILLER_0_28_2
*1115 FILLER_0_28_241
*1116 FILLER_0_28_247
*1117 FILLER_0_28_311
*1118 FILLER_0_28_317
*1119 FILLER_0_28_325
*1120 FILLER_0_28_329
*1121 FILLER_0_28_34
*1122 FILLER_0_28_37
*1123 FILLER_0_29_136
*1124 FILLER_0_29_142
*1125 FILLER_0_29_2
*1126 FILLER_0_29_206
*1127 FILLER_0_29_212
*1128 FILLER_0_29_276
*1129 FILLER_0_29_282
*1130 FILLER_0_29_314
*1131 FILLER_0_29_330
*1132 FILLER_0_29_66
*1133 FILLER_0_29_72
*1134 FILLER_0_2_101
*1135 FILLER_0_2_107
*1136 FILLER_0_2_171
*1137 FILLER_0_2_177
*1138 FILLER_0_2_2
*1139 FILLER_0_2_241
*1140 FILLER_0_2_247
*1141 FILLER_0_2_311
*1142 FILLER_0_2_317
*1143 FILLER_0_2_325
*1144 FILLER_0_2_329
*1145 FILLER_0_2_34
*1146 FILLER_0_2_37
*1147 FILLER_0_30_101
*1148 FILLER_0_30_107
*1149 FILLER_0_30_171
*1150 FILLER_0_30_177
*1151 FILLER_0_30_2
*1152 FILLER_0_30_241
*1153 FILLER_0_30_247
*1154 FILLER_0_30_311
*1155 FILLER_0_30_317
*1156 FILLER_0_30_325
*1157 FILLER_0_30_329
*1158 FILLER_0_30_34
*1159 FILLER_0_30_37
*1160 FILLER_0_31_136
*1161 FILLER_0_31_142
*1162 FILLER_0_31_2
*1163 FILLER_0_31_206
*1164 FILLER_0_31_212
*1165 FILLER_0_31_276
*1166 FILLER_0_31_282
*1167 FILLER_0_31_314
*1168 FILLER_0_31_330
*1169 FILLER_0_31_66
*1170 FILLER_0_31_72
*1171 FILLER_0_32_101
*1172 FILLER_0_32_107
*1173 FILLER_0_32_171
*1174 FILLER_0_32_177
*1175 FILLER_0_32_2
*1176 FILLER_0_32_241
*1177 FILLER_0_32_247
*1178 FILLER_0_32_311
*1179 FILLER_0_32_317
*1180 FILLER_0_32_325
*1181 FILLER_0_32_329
*1182 FILLER_0_32_34
*1183 FILLER_0_32_37
*1184 FILLER_0_33_136
*1185 FILLER_0_33_142
*1186 FILLER_0_33_2
*1187 FILLER_0_33_206
*1188 FILLER_0_33_212
*1189 FILLER_0_33_276
*1190 FILLER_0_33_282
*1191 FILLER_0_33_314
*1192 FILLER_0_33_330
*1193 FILLER_0_33_66
*1194 FILLER_0_33_72
*1195 FILLER_0_34_101
*1196 FILLER_0_34_107
*1197 FILLER_0_34_171
*1198 FILLER_0_34_2
*1199 FILLER_0_34_206
*1200 FILLER_0_34_238
*1201 FILLER_0_34_242
*1202 FILLER_0_34_244
*1203 FILLER_0_34_247
*1204 FILLER_0_34_311
*1205 FILLER_0_34_317
*1206 FILLER_0_34_325
*1207 FILLER_0_34_329
*1208 FILLER_0_34_34
*1209 FILLER_0_34_37
*1210 FILLER_0_35_117
*1211 FILLER_0_35_121
*1212 FILLER_0_35_137
*1213 FILLER_0_35_139
*1214 FILLER_0_35_171
*1215 FILLER_0_35_175
*1216 FILLER_0_35_179
*1217 FILLER_0_35_181
*1218 FILLER_0_35_186
*1219 FILLER_0_35_190
*1220 FILLER_0_35_197
*1221 FILLER_0_35_2
*1222 FILLER_0_35_218
*1223 FILLER_0_35_222
*1224 FILLER_0_35_254
*1225 FILLER_0_35_270
*1226 FILLER_0_35_278
*1227 FILLER_0_35_282
*1228 FILLER_0_35_314
*1229 FILLER_0_35_322
*1230 FILLER_0_35_326
*1231 FILLER_0_35_66
*1232 FILLER_0_35_72
*1233 FILLER_0_36_101
*1234 FILLER_0_36_107
*1235 FILLER_0_36_123
*1236 FILLER_0_36_127
*1237 FILLER_0_36_159
*1238 FILLER_0_36_177
*1239 FILLER_0_36_185
*1240 FILLER_0_36_187
*1241 FILLER_0_36_2
*1242 FILLER_0_36_225
*1243 FILLER_0_36_241
*1244 FILLER_0_36_247
*1245 FILLER_0_36_311
*1246 FILLER_0_36_317
*1247 FILLER_0_36_325
*1248 FILLER_0_36_329
*1249 FILLER_0_36_34
*1250 FILLER_0_36_37
*1251 FILLER_0_37_104
*1252 FILLER_0_37_126
*1253 FILLER_0_37_134
*1254 FILLER_0_37_138
*1255 FILLER_0_37_142
*1256 FILLER_0_37_150
*1257 FILLER_0_37_185
*1258 FILLER_0_37_193
*1259 FILLER_0_37_2
*1260 FILLER_0_37_207
*1261 FILLER_0_37_209
*1262 FILLER_0_37_212
*1263 FILLER_0_37_242
*1264 FILLER_0_37_274
*1265 FILLER_0_37_278
*1266 FILLER_0_37_282
*1267 FILLER_0_37_314
*1268 FILLER_0_37_330
*1269 FILLER_0_37_66
*1270 FILLER_0_37_72
*1271 FILLER_0_38_101
*1272 FILLER_0_38_107
*1273 FILLER_0_38_127
*1274 FILLER_0_38_135
*1275 FILLER_0_38_145
*1276 FILLER_0_38_161
*1277 FILLER_0_38_163
*1278 FILLER_0_38_172
*1279 FILLER_0_38_174
*1280 FILLER_0_38_185
*1281 FILLER_0_38_189
*1282 FILLER_0_38_197
*1283 FILLER_0_38_201
*1284 FILLER_0_38_204
*1285 FILLER_0_38_208
*1286 FILLER_0_38_212
*1287 FILLER_0_38_216
*1288 FILLER_0_38_218
*1289 FILLER_0_38_22
*1290 FILLER_0_38_225
*1291 FILLER_0_38_229
*1292 FILLER_0_38_247
*1293 FILLER_0_38_30
*1294 FILLER_0_38_311
*1295 FILLER_0_38_317
*1296 FILLER_0_38_325
*1297 FILLER_0_38_329
*1298 FILLER_0_38_34
*1299 FILLER_0_38_37
*1300 FILLER_0_38_6
*1301 FILLER_0_39_121
*1302 FILLER_0_39_125
*1303 FILLER_0_39_138
*1304 FILLER_0_39_150
*1305 FILLER_0_39_158
*1306 FILLER_0_39_162
*1307 FILLER_0_39_189
*1308 FILLER_0_39_193
*1309 FILLER_0_39_2
*1310 FILLER_0_39_201
*1311 FILLER_0_39_203
*1312 FILLER_0_39_224
*1313 FILLER_0_39_256
*1314 FILLER_0_39_272
*1315 FILLER_0_39_282
*1316 FILLER_0_39_314
*1317 FILLER_0_39_330
*1318 FILLER_0_39_66
*1319 FILLER_0_39_72
*1320 FILLER_0_39_88
*1321 FILLER_0_3_136
*1322 FILLER_0_3_142
*1323 FILLER_0_3_2
*1324 FILLER_0_3_206
*1325 FILLER_0_3_212
*1326 FILLER_0_3_276
*1327 FILLER_0_3_282
*1328 FILLER_0_3_314
*1329 FILLER_0_3_330
*1330 FILLER_0_3_66
*1331 FILLER_0_3_72
*1332 FILLER_0_40_101
*1333 FILLER_0_40_111
*1334 FILLER_0_40_129
*1335 FILLER_0_40_131
*1336 FILLER_0_40_161
*1337 FILLER_0_40_165
*1338 FILLER_0_40_173
*1339 FILLER_0_40_177
*1340 FILLER_0_40_179
*1341 FILLER_0_40_192
*1342 FILLER_0_40_196
*1343 FILLER_0_40_2
*1344 FILLER_0_40_228
*1345 FILLER_0_40_244
*1346 FILLER_0_40_247
*1347 FILLER_0_40_311
*1348 FILLER_0_40_317
*1349 FILLER_0_40_325
*1350 FILLER_0_40_329
*1351 FILLER_0_40_34
*1352 FILLER_0_40_37
*1353 FILLER_0_41_118
*1354 FILLER_0_41_126
*1355 FILLER_0_41_128
*1356 FILLER_0_41_131
*1357 FILLER_0_41_139
*1358 FILLER_0_41_148
*1359 FILLER_0_41_180
*1360 FILLER_0_41_192
*1361 FILLER_0_41_2
*1362 FILLER_0_41_208
*1363 FILLER_0_41_212
*1364 FILLER_0_41_221
*1365 FILLER_0_41_225
*1366 FILLER_0_41_256
*1367 FILLER_0_41_272
*1368 FILLER_0_41_282
*1369 FILLER_0_41_314
*1370 FILLER_0_41_330
*1371 FILLER_0_41_66
*1372 FILLER_0_41_72
*1373 FILLER_0_41_88
*1374 FILLER_0_42_103
*1375 FILLER_0_42_107
*1376 FILLER_0_42_115
*1377 FILLER_0_42_117
*1378 FILLER_0_42_120
*1379 FILLER_0_42_124
*1380 FILLER_0_42_126
*1381 FILLER_0_42_156
*1382 FILLER_0_42_172
*1383 FILLER_0_42_174
*1384 FILLER_0_42_177
*1385 FILLER_0_42_193
*1386 FILLER_0_42_2
*1387 FILLER_0_42_201
*1388 FILLER_0_42_205
*1389 FILLER_0_42_236
*1390 FILLER_0_42_240
*1391 FILLER_0_42_244
*1392 FILLER_0_42_247
*1393 FILLER_0_42_311
*1394 FILLER_0_42_317
*1395 FILLER_0_42_325
*1396 FILLER_0_42_34
*1397 FILLER_0_42_37
*1398 FILLER_0_42_53
*1399 FILLER_0_42_57
*1400 FILLER_0_42_87
*1401 FILLER_0_42_91
*1402 FILLER_0_42_99
*1403 FILLER_0_43_104
*1404 FILLER_0_43_120
*1405 FILLER_0_43_128
*1406 FILLER_0_43_130
*1407 FILLER_0_43_135
*1408 FILLER_0_43_139
*1409 FILLER_0_43_142
*1410 FILLER_0_43_158
*1411 FILLER_0_43_162
*1412 FILLER_0_43_168
*1413 FILLER_0_43_2
*1414 FILLER_0_43_200
*1415 FILLER_0_43_208
*1416 FILLER_0_43_240
*1417 FILLER_0_43_244
*1418 FILLER_0_43_248
*1419 FILLER_0_43_282
*1420 FILLER_0_43_314
*1421 FILLER_0_43_330
*1422 FILLER_0_43_66
*1423 FILLER_0_43_72
*1424 FILLER_0_44_102
*1425 FILLER_0_44_104
*1426 FILLER_0_44_107
*1427 FILLER_0_44_111
*1428 FILLER_0_44_182
*1429 FILLER_0_44_186
*1430 FILLER_0_44_2
*1431 FILLER_0_44_211
*1432 FILLER_0_44_213
*1433 FILLER_0_44_236
*1434 FILLER_0_44_240
*1435 FILLER_0_44_244
*1436 FILLER_0_44_247
*1437 FILLER_0_44_249
*1438 FILLER_0_44_279
*1439 FILLER_0_44_287
*1440 FILLER_0_44_317
*1441 FILLER_0_44_325
*1442 FILLER_0_44_329
*1443 FILLER_0_44_34
*1444 FILLER_0_44_37
*1445 FILLER_0_44_45
*1446 FILLER_0_44_78
*1447 FILLER_0_44_82
*1448 FILLER_0_44_98
*1449 FILLER_0_45_130
*1450 FILLER_0_45_138
*1451 FILLER_0_45_165
*1452 FILLER_0_45_167
*1453 FILLER_0_45_2
*1454 FILLER_0_45_216
*1455 FILLER_0_45_225
*1456 FILLER_0_45_227
*1457 FILLER_0_45_230
*1458 FILLER_0_45_262
*1459 FILLER_0_45_278
*1460 FILLER_0_45_282
*1461 FILLER_0_45_284
*1462 FILLER_0_45_314
*1463 FILLER_0_45_330
*1464 FILLER_0_45_34
*1465 FILLER_0_45_50
*1466 FILLER_0_45_69
*1467 FILLER_0_45_77
*1468 FILLER_0_45_81
*1469 FILLER_0_45_85
*1470 FILLER_0_45_92
*1471 FILLER_0_45_96
*1472 FILLER_0_45_98
*1473 FILLER_0_46_107
*1474 FILLER_0_46_115
*1475 FILLER_0_46_12
*1476 FILLER_0_46_156
*1477 FILLER_0_46_174
*1478 FILLER_0_46_177
*1479 FILLER_0_46_185
*1480 FILLER_0_46_225
*1481 FILLER_0_46_241
*1482 FILLER_0_46_247
*1483 FILLER_0_46_251
*1484 FILLER_0_46_28
*1485 FILLER_0_46_304
*1486 FILLER_0_46_312
*1487 FILLER_0_46_314
*1488 FILLER_0_46_317
*1489 FILLER_0_46_32
*1490 FILLER_0_46_325
*1491 FILLER_0_46_329
*1492 FILLER_0_46_34
*1493 FILLER_0_46_37
*1494 FILLER_0_46_53
*1495 FILLER_0_46_57
*1496 FILLER_0_46_59
*1497 FILLER_0_46_8
*1498 FILLER_0_47_116
*1499 FILLER_0_47_12
*1500 FILLER_0_47_132
*1501 FILLER_0_47_142
*1502 FILLER_0_47_150
*1503 FILLER_0_47_154
*1504 FILLER_0_47_158
*1505 FILLER_0_47_191
*1506 FILLER_0_47_195
*1507 FILLER_0_47_212
*1508 FILLER_0_47_244
*1509 FILLER_0_47_252
*1510 FILLER_0_47_271
*1511 FILLER_0_47_311
*1512 FILLER_0_47_327
*1513 FILLER_0_47_44
*1514 FILLER_0_47_60
*1515 FILLER_0_47_68
*1516 FILLER_0_47_72
*1517 FILLER_0_47_78
*1518 FILLER_0_47_8
*1519 FILLER_0_47_82
*1520 FILLER_0_47_98
*1521 FILLER_0_48_104
*1522 FILLER_0_48_107
*1523 FILLER_0_48_12
*1524 FILLER_0_48_161
*1525 FILLER_0_48_170
*1526 FILLER_0_48_174
*1527 FILLER_0_48_177
*1528 FILLER_0_48_190
*1529 FILLER_0_48_200
*1530 FILLER_0_48_239
*1531 FILLER_0_48_276
*1532 FILLER_0_48_28
*1533 FILLER_0_48_317
*1534 FILLER_0_48_32
*1535 FILLER_0_48_325
*1536 FILLER_0_48_329
*1537 FILLER_0_48_34
*1538 FILLER_0_48_37
*1539 FILLER_0_48_69
*1540 FILLER_0_48_77
*1541 FILLER_0_48_8
*1542 FILLER_0_48_81
*1543 FILLER_0_48_83
*1544 FILLER_0_48_92
*1545 FILLER_0_48_96
*1546 FILLER_0_49_104
*1547 FILLER_0_49_112
*1548 FILLER_0_49_116
*1549 FILLER_0_49_118
*1550 FILLER_0_49_123
*1551 FILLER_0_49_138
*1552 FILLER_0_49_142
*1553 FILLER_0_49_146
*1554 FILLER_0_49_158
*1555 FILLER_0_49_172
*1556 FILLER_0_49_188
*1557 FILLER_0_49_194
*1558 FILLER_0_49_2
*1559 FILLER_0_49_226
*1560 FILLER_0_49_234
*1561 FILLER_0_49_279
*1562 FILLER_0_49_290
*1563 FILLER_0_49_301
*1564 FILLER_0_49_34
*1565 FILLER_0_49_50
*1566 FILLER_0_49_58
*1567 FILLER_0_49_64
*1568 FILLER_0_49_68
*1569 FILLER_0_49_72
*1570 FILLER_0_4_101
*1571 FILLER_0_4_107
*1572 FILLER_0_4_171
*1573 FILLER_0_4_177
*1574 FILLER_0_4_2
*1575 FILLER_0_4_241
*1576 FILLER_0_4_247
*1577 FILLER_0_4_311
*1578 FILLER_0_4_317
*1579 FILLER_0_4_325
*1580 FILLER_0_4_329
*1581 FILLER_0_4_34
*1582 FILLER_0_4_37
*1583 FILLER_0_50_102
*1584 FILLER_0_50_104
*1585 FILLER_0_50_127
*1586 FILLER_0_50_129
*1587 FILLER_0_50_162
*1588 FILLER_0_50_164
*1589 FILLER_0_50_182
*1590 FILLER_0_50_198
*1591 FILLER_0_50_2
*1592 FILLER_0_50_206
*1593 FILLER_0_50_210
*1594 FILLER_0_50_225
*1595 FILLER_0_50_229
*1596 FILLER_0_50_237