*SPEF "ieee 1481-1999"
*DESIGN "sar_adc"
*DATE "11:11:11 Fri 11 11, 1111"
*VENDOR "OpenRCX"
*PROGRAM "Parallel Extraction"
*VERSION "1.0"
*DESIGN_FLOW "NAME_SCOPE LOCAL" "PIN_CAP NONE"
*DIVIDER /
*DELIMITER :
*BUS_DELIMITER []
*T_UNIT 1 NS
*C_UNIT 1 PF
*R_UNIT 1 OHM
*L_UNIT 1 HENRY

*NAME_MAP
*3 analog_dac_out
*4 analog_din[0]
*5 analog_din[1]
*6 analog_din[2]
*7 analog_din[3]
*8 analog_din[4]
*9 analog_din[5]
*10 clk
*11 pulse1m_mclk
*12 reg_ack
*13 reg_addr[0]
*14 reg_addr[1]
*15 reg_addr[2]
*16 reg_addr[3]
*17 reg_addr[4]
*18 reg_addr[5]
*19 reg_addr[6]
*20 reg_addr[7]
*21 reg_be[0]
*22 reg_be[1]
*23 reg_be[2]
*24 reg_be[3]
*25 reg_cs
*26 reg_rdata[0]
*27 reg_rdata[10]
*28 reg_rdata[11]
*29 reg_rdata[12]
*30 reg_rdata[13]
*31 reg_rdata[14]
*32 reg_rdata[15]
*33 reg_rdata[16]
*34 reg_rdata[17]
*35 reg_rdata[18]
*36 reg_rdata[19]
*37 reg_rdata[1]
*38 reg_rdata[20]
*39 reg_rdata[21]
*40 reg_rdata[22]
*41 reg_rdata[23]
*42 reg_rdata[24]
*43 reg_rdata[25]
*44 reg_rdata[26]
*45 reg_rdata[27]
*46 reg_rdata[28]
*47 reg_rdata[29]
*48 reg_rdata[2]
*49 reg_rdata[30]
*50 reg_rdata[31]
*51 reg_rdata[3]
*52 reg_rdata[4]
*53 reg_rdata[5]
*54 reg_rdata[6]
*55 reg_rdata[7]
*56 reg_rdata[8]
*57 reg_rdata[9]
*58 reg_wdata[0]
*59 reg_wdata[10]
*60 reg_wdata[11]
*61 reg_wdata[12]
*62 reg_wdata[13]
*63 reg_wdata[14]
*64 reg_wdata[15]
*65 reg_wdata[16]
*66 reg_wdata[17]
*67 reg_wdata[18]
*68 reg_wdata[19]
*69 reg_wdata[1]
*70 reg_wdata[20]
*71 reg_wdata[21]
*72 reg_wdata[22]
*73 reg_wdata[23]
*74 reg_wdata[24]
*75 reg_wdata[25]
*76 reg_wdata[26]
*77 reg_wdata[27]
*78 reg_wdata[28]
*79 reg_wdata[29]
*80 reg_wdata[2]
*81 reg_wdata[30]
*82 reg_wdata[31]
*83 reg_wdata[3]
*84 reg_wdata[4]
*85 reg_wdata[5]
*86 reg_wdata[6]
*87 reg_wdata[7]
*88 reg_wdata[8]
*89 reg_wdata[9]
*90 reg_wr
*91 reset_n
*92 sar2dac[0]
*93 sar2dac[1]
*94 sar2dac[2]
*95 sar2dac[3]
*96 sar2dac[4]
*97 sar2dac[5]
*98 sar2dac[6]
*99 sar2dac[7]
*100 COMP_0\.Q
*101 COMP_0\.net1
*102 COMP_0\.net2
*103 COMP_0\.net3
*104 COMP_0\.net4
*105 COMP_0\.net7
*106 COMP_1\.Q
*107 COMP_1\.net1
*108 COMP_1\.net2
*109 COMP_1\.net3
*110 COMP_1\.net4
*111 COMP_1\.net7
*112 COMP_2\.Q
*113 COMP_2\.net1
*114 COMP_2\.net2
*115 COMP_2\.net3
*116 COMP_2\.net4
*117 COMP_2\.net7
*118 COMP_3\.Q
*119 COMP_3\.net1
*120 COMP_3\.net2
*121 COMP_3\.net3
*122 COMP_3\.net4
*123 COMP_3\.net7
*124 COMP_4\.Q
*125 COMP_4\.net1
*126 COMP_4\.net2
*127 COMP_4\.net3
*128 COMP_4\.net4
*129 COMP_4\.net7
*130 COMP_5\.Q
*131 COMP_5\.net1
*132 COMP_5\.net2
*133 COMP_5\.net3
*134 COMP_5\.net4
*135 COMP_5\.net7
*136 CTRL\._000_
*137 CTRL\._001_
*138 CTRL\._002_
*139 CTRL\._003_
*140 CTRL\._004_
*141 CTRL\._005_
*142 CTRL\._006_
*143 CTRL\._007_
*144 CTRL\._008_
*145 CTRL\._009_
*146 CTRL\._010_
*147 CTRL\._011_
*148 CTRL\._012_
*149 CTRL\._013_
*150 CTRL\._014_
*151 CTRL\._015_
*152 CTRL\._016_
*153 CTRL\._017_
*154 CTRL\._018_
*155 CTRL\._019_
*156 CTRL\._020_
*157 CTRL\._021_
*158 CTRL\._022_
*159 CTRL\._023_
*160 CTRL\._024_
*161 CTRL\._025_
*162 CTRL\._026_
*163 CTRL\._027_
*164 CTRL\._028_
*165 CTRL\._029_
*166 CTRL\._030_
*167 CTRL\._031_
*168 CTRL\._032_
*169 CTRL\._033_
*170 CTRL\._034_
*171 CTRL\._035_
*172 CTRL\._036_
*173 CTRL\._037_
*174 CTRL\._038_
*175 CTRL\._039_
*176 CTRL\._040_
*177 CTRL\._041_
*178 CTRL\._042_
*179 CTRL\._043_
*180 CTRL\._044_
*181 CTRL\._045_
*182 CTRL\._046_
*183 CTRL\._047_
*184 CTRL\._048_
*185 CTRL\._049_
*186 CTRL\._050_
*187 CTRL\._051_
*188 CTRL\.cmp
*189 CTRL\.done
*190 CTRL\.next\[0\]
*191 CTRL\.next\[1\]
*192 CTRL\.next\[2\]
*193 CTRL\.next\[3\]
*194 CTRL\.next\[4\]
*195 CTRL\.next\[5\]
*196 CTRL\.next\[6\]
*197 CTRL\.nstate\[0\]
*198 CTRL\.nstate\[1\]
*199 CTRL\.out\[0\]
*200 CTRL\.out\[1\]
*201 CTRL\.out\[2\]
*202 CTRL\.out\[3\]
*203 CTRL\.out\[4\]
*204 CTRL\.out\[5\]
*205 CTRL\.out\[6\]
*206 CTRL\.out\[7\]
*207 CTRL\.outn\[0\]
*208 CTRL\.outn\[1\]
*209 CTRL\.outn\[2\]
*210 CTRL\.outn\[3\]
*211 CTRL\.outn\[4\]
*212 CTRL\.outn\[5\]
*213 CTRL\.outn\[6\]
*214 CTRL\.outn\[7\]
*215 CTRL\.shift\[0\]
*216 CTRL\.start
*217 CTRL\.state\[0\]
*218 CTRL\.state\[1\]
*219 _00_
*220 _02_
*221 _03_
*222 _04_
*223 _05_
*224 clknet_0_COMP_0\.Q
*225 clknet_0_COMP_0\.net1
*226 clknet_0_COMP_0\.net2
*227 clknet_0_COMP_0\.net3
*228 clknet_0_COMP_0\.net4
*229 clknet_0_COMP_1\.Q
*230 clknet_0_COMP_1\.net1
*231 clknet_0_COMP_1\.net2
*232 clknet_0_COMP_1\.net3
*233 clknet_0_COMP_1\.net4
*234 clknet_0_COMP_2\.Q
*235 clknet_0_COMP_2\.net1
*236 clknet_0_COMP_2\.net2
*237 clknet_0_COMP_2\.net3
*238 clknet_0_COMP_2\.net4
*239 clknet_0_COMP_3\.Q
*240 clknet_0_COMP_3\.net1
*241 clknet_0_COMP_3\.net2
*242 clknet_0_COMP_3\.net3
*243 clknet_0_COMP_3\.net4
*244 clknet_0_COMP_4\.Q
*245 clknet_0_COMP_4\.net1
*246 clknet_0_COMP_4\.net2
*247 clknet_0_COMP_4\.net3
*248 clknet_0_COMP_4\.net4
*249 clknet_0_COMP_5\.Q
*250 clknet_0_COMP_5\.net1
*251 clknet_0_COMP_5\.net2
*252 clknet_0_COMP_5\.net3
*253 clknet_0_COMP_5\.net4
*254 clknet_0_CTRL\.cmp
*255 clknet_0_clk
*256 clknet_1_0__leaf_COMP_0\.Q
*257 clknet_1_0__leaf_COMP_0\.net1
*258 clknet_1_0__leaf_COMP_0\.net2
*259 clknet_1_0__leaf_COMP_0\.net3
*260 clknet_1_0__leaf_COMP_0\.net4
*261 clknet_1_0__leaf_COMP_1\.Q
*262 clknet_1_0__leaf_COMP_1\.net1
*263 clknet_1_0__leaf_COMP_1\.net2
*264 clknet_1_0__leaf_COMP_1\.net3
*265 clknet_1_0__leaf_COMP_1\.net4
*266 clknet_1_0__leaf_COMP_2\.Q
*267 clknet_1_0__leaf_COMP_2\.net1
*268 clknet_1_0__leaf_COMP_2\.net2
*269 clknet_1_0__leaf_COMP_2\.net3
*270 clknet_1_0__leaf_COMP_2\.net4
*271 clknet_1_0__leaf_COMP_3\.Q
*272 clknet_1_0__leaf_COMP_3\.net1
*273 clknet_1_0__leaf_COMP_3\.net2
*274 clknet_1_0__leaf_COMP_3\.net3
*275 clknet_1_0__leaf_COMP_3\.net4
*276 clknet_1_0__leaf_COMP_4\.Q
*277 clknet_1_0__leaf_COMP_4\.net1
*278 clknet_1_0__leaf_COMP_4\.net2
*279 clknet_1_0__leaf_COMP_4\.net3
*280 clknet_1_0__leaf_COMP_4\.net4
*281 clknet_1_0__leaf_COMP_5\.Q
*282 clknet_1_0__leaf_COMP_5\.net1
*283 clknet_1_0__leaf_COMP_5\.net2
*284 clknet_1_0__leaf_COMP_5\.net3
*285 clknet_1_0__leaf_COMP_5\.net4
*286 clknet_1_0__leaf_CTRL\.cmp
*287 clknet_1_1__leaf_COMP_0\.Q
*288 clknet_1_1__leaf_COMP_0\.net1
*289 clknet_1_1__leaf_COMP_0\.net2
*290 clknet_1_1__leaf_COMP_0\.net3
*291 clknet_1_1__leaf_COMP_0\.net4
*292 clknet_1_1__leaf_COMP_1\.Q
*293 clknet_1_1__leaf_COMP_1\.net1
*294 clknet_1_1__leaf_COMP_1\.net2
*295 clknet_1_1__leaf_COMP_1\.net3
*296 clknet_1_1__leaf_COMP_1\.net4
*297 clknet_1_1__leaf_COMP_2\.Q
*298 clknet_1_1__leaf_COMP_2\.net1
*299 clknet_1_1__leaf_COMP_2\.net2
*300 clknet_1_1__leaf_COMP_2\.net3
*301 clknet_1_1__leaf_COMP_2\.net4
*302 clknet_1_1__leaf_COMP_3\.Q
*303 clknet_1_1__leaf_COMP_3\.net1
*304 clknet_1_1__leaf_COMP_3\.net2
*305 clknet_1_1__leaf_COMP_3\.net3
*306 clknet_1_1__leaf_COMP_3\.net4
*307 clknet_1_1__leaf_COMP_4\.Q
*308 clknet_1_1__leaf_COMP_4\.net1
*309 clknet_1_1__leaf_COMP_4\.net2
*310 clknet_1_1__leaf_COMP_4\.net3
*311 clknet_1_1__leaf_COMP_4\.net4
*312 clknet_1_1__leaf_COMP_5\.Q
*313 clknet_1_1__leaf_COMP_5\.net1
*314 clknet_1_1__leaf_COMP_5\.net2
*315 clknet_1_1__leaf_COMP_5\.net3
*316 clknet_1_1__leaf_COMP_5\.net4
*317 clknet_1_1__leaf_CTRL\.cmp
*318 clknet_2_0__leaf_clk
*319 clknet_2_1__leaf_clk
*320 clknet_2_2__leaf_clk
*321 clknet_2_3__leaf_clk
*322 net1
*323 net10
*324 net100
*325 net101
*326 net102
*327 net103
*328 net104
*329 net105
*330 net106
*331 net107
*332 net108
*333 net109
*334 net11
*335 net110
*336 net111
*337 net112
*338 net113
*339 net114
*340 net115
*341 net116
*342 net117
*343 net118
*344 net119
*345 net12
*346 net120
*347 net121
*348 net122
*349 net123
*350 net124
*351 net125
*352 net126
*353 net127
*354 net128
*355 net129
*356 net13
*357 net130
*358 net131
*359 net132
*360 net133
*361 net134
*362 net135
*363 net136
*364 net137
*365 net138
*366 net139
*367 net14
*368 net140
*369 net141
*370 net142
*371 net143
*372 net144
*373 net145
*374 net146
*375 net147
*376 net148
*377 net149
*378 net15
*379 net150
*380 net151
*381 net152
*382 net153
*383 net154
*384 net155
*385 net156
*386 net157
*387 net158
*388 net159
*389 net16
*390 net160
*391 net161
*392 net162
*393 net163
*394 net164
*395 net165
*396 net166
*397 net167
*398 net168
*399 net169
*400 net17
*401 net170
*402 net171
*403 net172
*404 net173
*405 net174
*406 net175
*407 net176
*408 net177
*409 net178
*410 net179
*411 net18
*412 net180
*413 net181
*414 net182
*415 net183
*416 net184
*417 net185
*418 net186
*419 net187
*420 net188
*421 net189
*422 net19
*423 net190
*424 net191
*425 net192
*426 net193
*427 net194
*428 net195
*429 net196
*430 net197
*431 net198
*432 net199
*433 net2
*434 net20
*435 net200
*436 net201
*437 net202
*438 net203
*439 net204
*440 net205
*441 net206
*442 net207
*443 net208
*444 net209
*445 net21
*446 net210
*447 net211
*448 net212
*449 net213
*450 net214
*451 net215
*452 net216
*453 net217
*454 net218
*455 net219
*456 net22
*457 net220
*458 net221
*459 net222
*460 net223
*461 net224
*462 net225
*463 net226
*464 net227
*465 net228
*466 net229
*467 net23
*468 net230
*469 net231
*470 net232
*471 net233
*472 net234
*473 net235
*474 net236
*475 net237
*476 net238
*477 net239
*478 net24
*479 net240
*480 net241
*481 net242
*482 net243
*483 net244
*484 net245
*485 net246
*486 net247
*487 net248
*488 net249
*489 net25
*490 net250
*491 net251
*492 net252
*493 net253
*494 net254
*495 net255
*496 net256
*497 net257
*498 net258
*499 net259
*500 net26
*501 net260
*502 net261
*503 net262
*504 net263
*505 net264
*506 net265
*507 net266
*508 net267
*509 net268
*510 net269
*511 net27
*512 net270
*513 net271
*514 net272
*515 net273
*516 net274
*517 net275
*518 net276
*519 net277
*520 net278
*521 net279
*522 net28
*523 net280
*524 net281
*525 net282
*526 net283
*527 net284
*528 net285
*529 net286
*530 net287
*531 net288
*532 net289
*533 net29
*534 net290
*535 net291
*536 net292
*537 net293
*538 net294
*539 net295
*540 net296
*541 net297
*542 net298
*543 net299
*544 net3
*545 net30
*546 net300
*547 net301
*548 net302
*549 net303
*550 net304
*551 net305
*552 net306
*553 net307
*554 net308
*555 net309
*556 net31
*557 net310
*558 net311
*559 net312
*560 net313
*561 net314
*562 net315
*563 net316
*564 net317
*565 net318
*566 net319
*567 net32
*568 net320
*569 net321
*570 net322
*571 net323
*572 net324
*573 net325
*574 net326
*575 net327
*576 net328
*577 net329
*578 net33
*579 net34
*580 net35
*581 net36
*582 net37
*583 net38
*584 net39
*585 net4
*586 net40
*587 net41
*588 net42
*589 net43
*590 net44
*591 net45
*592 net46
*593 net47
*594 net48
*595 net49
*596 net5
*597 net50
*598 net51
*599 net52
*600 net53
*601 net54
*602 net55
*603 net56
*604 net57
*605 net58
*606 net59
*607 net6
*608 net60
*609 net61
*610 net62
*611 net63
*612 net64
*613 net65
*614 net66
*615 net67
*616 net68
*617 net69
*618 net7
*619 net70
*620 net71
*621 net72
*622 net73
*623 net74
*624 net75
*625 net76
*626 net77
*627 net78
*628 net79
*629 net8
*630 net80
*631 net81
*632 net82
*633 net83
*634 net84
*635 net85
*636 net86
*637 net87
*638 net88
*639 net89
*640 net9
*641 net90
*642 net91
*643 net92
*644 net93
*645 net94
*646 net95
*647 net96
*648 net97
*649 net98
*650 net99
*651 u_adc_reg\._000_
*652 u_adc_reg\._001_
*653 u_adc_reg\._002_
*654 u_adc_reg\._003_
*655 u_adc_reg\._004_
*656 u_adc_reg\._005_
*657 u_adc_reg\._006_
*658 u_adc_reg\._007_
*659 u_adc_reg\._008_
*660 u_adc_reg\._009_
*661 u_adc_reg\._010_
*662 u_adc_reg\._011_
*663 u_adc_reg\._012_
*664 u_adc_reg\._013_
*665 u_adc_reg\._014_
*666 u_adc_reg\._015_
*667 u_adc_reg\._016_
*668 u_adc_reg\._017_
*669 u_adc_reg\._018_
*670 u_adc_reg\._019_
*671 u_adc_reg\._020_
*672 u_adc_reg\._021_
*673 u_adc_reg\._022_
*674 u_adc_reg\._023_
*675 u_adc_reg\._024_
*676 u_adc_reg\._025_
*677 u_adc_reg\._026_
*678 u_adc_reg\._027_
*679 u_adc_reg\._028_
*680 u_adc_reg\._029_
*681 u_adc_reg\._030_
*682 u_adc_reg\._031_
*683 u_adc_reg\._032_
*684 u_adc_reg\._033_
*685 u_adc_reg\._034_
*686 u_adc_reg\._035_
*687 u_adc_reg\._036_
*688 u_adc_reg\._037_
*689 u_adc_reg\._038_
*690 u_adc_reg\._039_
*691 u_adc_reg\._040_
*692 u_adc_reg\._041_
*693 u_adc_reg\._042_
*694 u_adc_reg\._043_
*695 u_adc_reg\._044_
*696 u_adc_reg\._045_
*697 u_adc_reg\._046_
*698 u_adc_reg\._047_
*699 u_adc_reg\._048_
*700 u_adc_reg\._049_
*701 u_adc_reg\._050_
*702 u_adc_reg\._051_
*703 u_adc_reg\._052_
*704 u_adc_reg\._053_
*705 u_adc_reg\._054_
*706 u_adc_reg\._055_
*707 u_adc_reg\._056_
*708 u_adc_reg\._057_
*709 u_adc_reg\._058_
*710 u_adc_reg\._059_
*711 u_adc_reg\._060_
*712 u_adc_reg\._061_
*713 u_adc_reg\._062_
*714 u_adc_reg\._063_
*715 u_adc_reg\._064_
*716 u_adc_reg\._065_
*717 u_adc_reg\._066_
*718 u_adc_reg\._067_
*719 u_adc_reg\._068_
*720 u_adc_reg\._069_
*721 u_adc_reg\._070_
*722 u_adc_reg\._071_
*723 u_adc_reg\._072_
*724 u_adc_reg\._073_
*725 u_adc_reg\._074_
*726 u_adc_reg\._075_
*727 u_adc_reg\._076_
*728 u_adc_reg\._077_
*729 u_adc_reg\._078_
*730 u_adc_reg\._079_
*731 u_adc_reg\._080_
*732 u_adc_reg\._081_
*733 u_adc_reg\._082_
*734 u_adc_reg\._083_
*735 u_adc_reg\._084_
*736 u_adc_reg\._085_
*737 u_adc_reg\._086_
*738 u_adc_reg\._087_
*739 u_adc_reg\._088_
*740 u_adc_reg\._089_
*741 u_adc_reg\._090_
*742 u_adc_reg\._091_
*743 u_adc_reg\._092_
*744 u_adc_reg\._093_
*745 u_adc_reg\._094_
*746 u_adc_reg\._095_
*747 u_adc_reg\._096_
*748 u_adc_reg\._097_
*749 u_adc_reg\._098_
*750 u_adc_reg\._099_
*751 u_adc_reg\._100_
*752 u_adc_reg\._101_
*753 u_adc_reg\._102_
*754 u_adc_reg\._103_
*755 u_adc_reg\._104_
*756 u_adc_reg\._105_
*757 u_adc_reg\._106_
*758 u_adc_reg\._107_
*759 u_adc_reg\._108_
*760 u_adc_reg\._109_
*761 u_adc_reg\._110_
*762 u_adc_reg\._111_
*763 u_adc_reg\._112_
*764 u_adc_reg\._113_
*765 u_adc_reg\._114_
*766 u_adc_reg\._115_
*767 u_adc_reg\._116_
*768 u_adc_reg\._117_
*769 u_adc_reg\._118_
*770 u_adc_reg\._119_
*771 u_adc_reg\._120_
*772 u_adc_reg\._121_
*773 u_adc_reg\._122_
*774 u_adc_reg\._123_
*775 u_adc_reg\._124_
*776 u_adc_reg\._125_
*777 u_adc_reg\._126_
*778 u_adc_reg\._127_
*779 u_adc_reg\._128_
*780 u_adc_reg\._129_
*781 u_adc_reg\._130_
*782 u_adc_reg\._131_
*783 u_adc_reg\._132_
*784 u_adc_reg\._133_
*785 u_adc_reg\._134_
*786 u_adc_reg\._135_
*787 u_adc_reg\._136_
*788 u_adc_reg\._137_
*789 u_adc_reg\._138_
*790 u_adc_reg\._139_
*791 u_adc_reg\._140_
*792 u_adc_reg\._141_
*793 u_adc_reg\._142_
*794 u_adc_reg\._143_
*795 u_adc_reg\._144_
*796 u_adc_reg\._145_
*797 u_adc_reg\._146_
*798 u_adc_reg\._147_
*799 u_adc_reg\._148_
*800 u_adc_reg\._149_
*801 u_adc_reg\._150_
*802 u_adc_reg\._151_
*803 u_adc_reg\._152_
*804 u_adc_reg\._153_
*805 u_adc_reg\._154_
*806 u_adc_reg\._155_
*807 u_adc_reg\._156_
*808 u_adc_reg\._157_
*809 u_adc_reg\._158_
*810 u_adc_reg\._159_
*811 u_adc_reg\._160_
*812 u_adc_reg\._161_
*813 u_adc_reg\._162_
*814 u_adc_reg\._163_
*815 u_adc_reg\._164_
*816 u_adc_reg\._165_
*817 u_adc_reg\._166_
*818 u_adc_reg\._167_
*819 u_adc_reg\._168_
*820 u_adc_reg\._169_
*821 u_adc_reg\._170_
*822 u_adc_reg\._171_
*823 u_adc_reg\._172_
*824 u_adc_reg\._173_
*825 u_adc_reg\._174_
*826 u_adc_reg\._175_
*827 u_adc_reg\._176_
*828 u_adc_reg\._177_
*829 u_adc_reg\._178_
*830 u_adc_reg\._179_
*831 u_adc_reg\._180_
*832 u_adc_reg\._181_
*833 u_adc_reg\._182_
*834 u_adc_reg\._183_
*835 u_adc_reg\._184_
*836 u_adc_reg\._185_
*837 u_adc_reg\._186_
*838 u_adc_reg\._187_
*839 u_adc_reg\._188_
*840 u_adc_reg\._189_
*841 u_adc_reg\._190_
*842 u_adc_reg\._191_
*843 u_adc_reg\._192_
*844 u_adc_reg\._193_
*845 u_adc_reg\._194_
*846 u_adc_reg\._195_
*847 u_adc_reg\._196_
*848 u_adc_reg\._197_
*849 u_adc_reg\._198_
*850 u_adc_reg\._199_
*851 u_adc_reg\._200_
*852 u_adc_reg\._201_
*853 u_adc_reg\._202_
*854 u_adc_reg\._203_
*855 u_adc_reg\._204_
*856 u_adc_reg\._205_
*857 u_adc_reg\._206_
*858 u_adc_reg\._207_
*859 u_adc_reg\._208_
*860 u_adc_reg\._209_
*861 u_adc_reg\._210_
*862 u_adc_reg\._211_
*863 u_adc_reg\._212_
*864 u_adc_reg\._213_
*865 u_adc_reg\._214_
*866 u_adc_reg\._215_
*867 u_adc_reg\._216_
*868 u_adc_reg\._217_
*869 u_adc_reg\._218_
*870 u_adc_reg\._219_
*871 u_adc_reg\._220_
*872 u_adc_reg\._221_
*873 u_adc_reg\._222_
*874 u_adc_reg\._223_
*875 u_adc_reg\._224_
*876 u_adc_reg\._225_
*877 u_adc_reg\._226_
*878 u_adc_reg\._227_
*879 u_adc_reg\._228_
*880 u_adc_reg\._229_
*881 u_adc_reg\._230_
*882 u_adc_reg\._231_
*883 u_adc_reg\._232_
*884 u_adc_reg\._233_
*885 u_adc_reg\._234_
*886 u_adc_reg\._235_
*887 u_adc_reg\._236_
*888 u_adc_reg\._237_
*889 u_adc_reg\._238_
*890 u_adc_reg\._239_
*891 u_adc_reg\._240_
*892 u_adc_reg\._241_
*893 u_adc_reg\._242_
*894 u_adc_reg\._243_
*895 u_adc_reg\._244_
*896 u_adc_reg\._245_
*897 u_adc_reg\._246_
*898 u_adc_reg\._247_
*899 u_adc_reg\._248_
*900 u_adc_reg\._249_
*901 u_adc_reg\._250_
*902 u_adc_reg\._251_
*903 u_adc_reg\._252_
*904 u_adc_reg\._253_
*905 u_adc_reg\._254_
*906 u_adc_reg\._255_
*907 u_adc_reg\._256_
*908 u_adc_reg\._257_
*909 u_adc_reg\._258_
*910 u_adc_reg\._259_
*911 u_adc_reg\._260_
*912 u_adc_reg\._261_
*913 u_adc_reg\._262_
*914 u_adc_reg\._263_
*915 u_adc_reg\._264_
*916 u_adc_reg\._265_
*917 u_adc_reg\._266_
*918 u_adc_reg\._267_
*919 u_adc_reg\._268_
*920 u_adc_reg\._269_
*921 u_adc_reg\._270_
*922 u_adc_reg\._271_
*923 u_adc_reg\._272_
*924 u_adc_reg\._273_
*925 u_adc_reg\._274_
*926 u_adc_reg\._275_
*927 u_adc_reg\._276_
*928 u_adc_reg\._277_
*929 u_adc_reg\._278_
*930 u_adc_reg\._279_
*931 u_adc_reg\._280_
*932 u_adc_reg\._281_
*933 u_adc_reg\._282_
*934 u_adc_reg\._283_
*935 u_adc_reg\._284_
*936 u_adc_reg\._285_
*937 u_adc_reg\._286_
*938 u_adc_reg\.adc_ch_no\[0\]
*939 u_adc_reg\.adc_ch_no\[1\]
*940 u_adc_reg\.adc_ch_no\[2\]
*941 u_adc_reg\.reg_0\[0\]
*942 u_adc_reg\.reg_0\[10\]
*943 u_adc_reg\.reg_0\[11\]
*944 u_adc_reg\.reg_0\[12\]
*945 u_adc_reg\.reg_0\[13\]
*946 u_adc_reg\.reg_0\[14\]
*947 u_adc_reg\.reg_0\[15\]
*948 u_adc_reg\.reg_0\[16\]
*949 u_adc_reg\.reg_0\[17\]
*950 u_adc_reg\.reg_0\[18\]
*951 u_adc_reg\.reg_0\[19\]
*952 u_adc_reg\.reg_0\[1\]
*953 u_adc_reg\.reg_0\[20\]
*954 u_adc_reg\.reg_0\[21\]
*955 u_adc_reg\.reg_0\[22\]
*956 u_adc_reg\.reg_0\[23\]
*957 u_adc_reg\.reg_0\[24\]
*958 u_adc_reg\.reg_0\[25\]
*959 u_adc_reg\.reg_0\[26\]
*960 u_adc_reg\.reg_0\[27\]
*961 u_adc_reg\.reg_0\[28\]
*962 u_adc_reg\.reg_0\[29\]
*963 u_adc_reg\.reg_0\[2\]
*964 u_adc_reg\.reg_0\[30\]
*965 u_adc_reg\.reg_0\[31\]
*966 u_adc_reg\.reg_0\[3\]
*967 u_adc_reg\.reg_0\[4\]
*968 u_adc_reg\.reg_0\[5\]
*969 u_adc_reg\.reg_0\[6\]
*970 u_adc_reg\.reg_0\[7\]
*971 u_adc_reg\.reg_0\[8\]
*972 u_adc_reg\.reg_0\[9\]
*973 u_adc_reg\.reg_1\[0\]
*974 u_adc_reg\.reg_1\[1\]
*975 u_adc_reg\.reg_1\[2\]
*976 u_adc_reg\.reg_1\[3\]
*977 u_adc_reg\.reg_1\[4\]
*978 u_adc_reg\.reg_1\[5\]
*979 u_adc_reg\.reg_1\[6\]
*980 u_adc_reg\.reg_1\[7\]
*981 u_adc_reg\.reg_2\[0\]
*982 u_adc_reg\.reg_2\[1\]
*983 u_adc_reg\.reg_2\[2\]
*984 u_adc_reg\.reg_2\[3\]
*985 u_adc_reg\.reg_2\[4\]
*986 u_adc_reg\.reg_2\[5\]
*987 u_adc_reg\.reg_2\[6\]
*988 u_adc_reg\.reg_2\[7\]
*989 u_adc_reg\.reg_3\[0\]
*990 u_adc_reg\.reg_3\[1\]
*991 u_adc_reg\.reg_3\[2\]
*992 u_adc_reg\.reg_3\[3\]
*993 u_adc_reg\.reg_3\[4\]
*994 u_adc_reg\.reg_3\[5\]
*995 u_adc_reg\.reg_3\[6\]
*996 u_adc_reg\.reg_3\[7\]
*997 u_adc_reg\.reg_4\[0\]
*998 u_adc_reg\.reg_4\[1\]
*999 u_adc_reg\.reg_4\[2\]
*1000 u_adc_reg\.reg_4\[3\]
*1001 u_adc_reg\.reg_4\[4\]
*1002 u_adc_reg\.reg_4\[5\]
*1003 u_adc_reg\.reg_4\[6\]
*1004 u_adc_reg\.reg_4\[7\]
*1005 u_adc_reg\.reg_5\[0\]
*1006 u_adc_reg\.reg_5\[1\]
*1007 u_adc_reg\.reg_5\[2\]
*1008 u_adc_reg\.reg_5\[3\]
*1009 u_adc_reg\.reg_5\[4\]
*1010 u_adc_reg\.reg_5\[5\]
*1011 u_adc_reg\.reg_5\[6\]
*1012 u_adc_reg\.reg_5\[7\]
*1013 u_adc_reg\.reg_6\[0\]
*1014 u_adc_reg\.reg_6\[1\]
*1015 u_adc_reg\.reg_6\[2\]
*1016 u_adc_reg\.reg_6\[3\]
*1017 u_adc_reg\.reg_6\[4\]
*1018 u_adc_reg\.reg_6\[5\]
*1019 u_adc_reg\.reg_6\[6\]
*1020 u_adc_reg\.reg_6\[7\]
*1021 u_adc_reg\.reg_cs_2l
*1022 u_adc_reg\.reg_cs_l
*1023 u_adc_reg\.reg_rdata\[0\]
*1024 u_adc_reg\.reg_rdata\[10\]
*1025 u_adc_reg\.reg_rdata\[11\]
*1026 u_adc_reg\.reg_rdata\[12\]
*1027 u_adc_reg\.reg_rdata\[13\]
*1028 u_adc_reg\.reg_rdata\[14\]
*1029 u_adc_reg\.reg_rdata\[15\]
*1030 u_adc_reg\.reg_rdata\[16\]
*1031 u_adc_reg\.reg_rdata\[17\]
*1032 u_adc_reg\.reg_rdata\[18\]
*1033 u_adc_reg\.reg_rdata\[19\]
*1034 u_adc_reg\.reg_rdata\[1\]
*1035 u_adc_reg\.reg_rdata\[20\]
*1036 u_adc_reg\.reg_rdata\[21\]
*1037 u_adc_reg\.reg_rdata\[22\]
*1038 u_adc_reg\.reg_rdata\[23\]
*1039 u_adc_reg\.reg_rdata\[24\]
*1040 u_adc_reg\.reg_rdata\[25\]
*1041 u_adc_reg\.reg_rdata\[26\]
*1042 u_adc_reg\.reg_rdata\[27\]
*1043 u_adc_reg\.reg_rdata\[28\]
*1044 u_adc_reg\.reg_rdata\[29\]
*1045 u_adc_reg\.reg_rdata\[2\]
*1046 u_adc_reg\.reg_rdata\[30\]
*1047 u_adc_reg\.reg_rdata\[31\]
*1048 u_adc_reg\.reg_rdata\[3\]
*1049 u_adc_reg\.reg_rdata\[4\]
*1050 u_adc_reg\.reg_rdata\[5\]
*1051 u_adc_reg\.reg_rdata\[6\]
*1052 u_adc_reg\.reg_rdata\[7\]
*1053 u_adc_reg\.reg_rdata\[8\]
*1054 u_adc_reg\.reg_rdata\[9\]
*1055 u_adc_reg\.sw_addr\[0\]
*1056 u_adc_reg\.sw_addr\[1\]
*1057 u_adc_reg\.sw_addr\[2\]
*1058 u_adc_reg\.sw_addr\[3\]
*1059 u_adc_reg\.sw_rd_en
*1060 u_adc_reg\.sw_reg_wdata\[0\]
*1061 u_adc_reg\.sw_reg_wdata\[10\]
*1062 u_adc_reg\.sw_reg_wdata\[11\]
*1063 u_adc_reg\.sw_reg_wdata\[12\]
*1064 u_adc_reg\.sw_reg_wdata\[13\]
*1065 u_adc_reg\.sw_reg_wdata\[14\]
*1066 u_adc_reg\.sw_reg_wdata\[15\]
*1067 u_adc_reg\.sw_reg_wdata\[16\]
*1068 u_adc_reg\.sw_reg_wdata\[17\]
*1069 u_adc_reg\.sw_reg_wdata\[18\]
*1070 u_adc_reg\.sw_reg_wdata\[19\]
*1071 u_adc_reg\.sw_reg_wdata\[1\]
*1072 u_adc_reg\.sw_reg_wdata\[20\]
*1073 u_adc_reg\.sw_reg_wdata\[21\]
*1074 u_adc_reg\.sw_reg_wdata\[22\]
*1075 u_adc_reg\.sw_reg_wdata\[23\]
*1076 u_adc_reg\.sw_reg_wdata\[24\]
*1077 u_adc_reg\.sw_reg_wdata\[25\]
*1078 u_adc_reg\.sw_reg_wdata\[26\]
*1079 u_adc_reg\.sw_reg_wdata\[27\]
*1080 u_adc_reg\.sw_reg_wdata\[28\]
*1081 u_adc_reg\.sw_reg_wdata\[29\]
*1082 u_adc_reg\.sw_reg_wdata\[2\]
*1083 u_adc_reg\.sw_reg_wdata\[30\]
*1084 u_adc_reg\.sw_reg_wdata\[31\]
*1085 u_adc_reg\.sw_reg_wdata\[3\]
*1086 u_adc_reg\.sw_reg_wdata\[4\]
*1087 u_adc_reg\.sw_reg_wdata\[5\]
*1088 u_adc_reg\.sw_reg_wdata\[6\]
*1089 u_adc_reg\.sw_reg_wdata\[7\]
*1090 u_adc_reg\.sw_reg_wdata\[8\]
*1091 u_adc_reg\.sw_reg_wdata\[9\]
*1092 u_adc_reg\.sw_wr_en
*1093 u_adc_reg\.sw_wr_en_0
*1094 u_adc_reg\.u_reg_0\._000_
*1095 u_adc_reg\.u_reg_0\._001_
*1096 u_adc_reg\.u_reg_0\._002_
*1097 u_adc_reg\.u_reg_0\._003_
*1098 u_adc_reg\.u_reg_0\._004_
*1099 u_adc_reg\.u_reg_0\._005_
*1100 u_adc_reg\.u_reg_0\._006_
*1101 u_adc_reg\.u_reg_0\._007_
*1102 u_adc_reg\.u_reg_0\._008_
*1103 u_adc_reg\.u_reg_0\._009_
*1104 u_adc_reg\.u_reg_0\._010_
*1105 u_adc_reg\.u_reg_0\._011_
*1106 u_adc_reg\.u_reg_0\._012_
*1107 u_adc_reg\.u_reg_0\._013_
*1108 u_adc_reg\.u_reg_0\._014_
*1109 u_adc_reg\.u_reg_0\._015_
*1110 u_adc_reg\.u_reg_0\._016_
*1111 u_adc_reg\.u_reg_0\._017_
*1112 u_adc_reg\.u_reg_0\._018_
*1113 u_adc_reg\.u_reg_0\._019_
*1114 u_adc_reg\.u_reg_0\._020_
*1115 u_adc_reg\.u_reg_0\._021_
*1116 u_adc_reg\.u_reg_0\._022_
*1117 u_adc_reg\.u_reg_0\._023_
*1118 u_adc_reg\.u_reg_0\._024_
*1119 u_adc_reg\.u_reg_0\._025_
*1120 u_adc_reg\.u_reg_0\._026_
*1121 u_adc_reg\.u_reg_0\._027_
*1122 u_adc_reg\.u_reg_0\._028_
*1123 u_adc_reg\.u_reg_0\._029_
*1124 u_adc_reg\.u_reg_0\._030_
*1125 u_adc_reg\.u_reg_0\._031_
*1126 u_adc_reg\.u_reg_0\._032_
*1127 u_adc_reg\.u_reg_0\._033_
*1128 u_adc_reg\.u_reg_0\._034_
*1129 u_adc_reg\.u_reg_0\._035_
*1130 u_adc_reg\.u_reg_0\._036_
*1131 u_adc_reg\.u_reg_0\._037_
*1132 u_adc_reg\.u_reg_0\._038_
*1133 u_adc_reg\.u_reg_0\._039_
*1134 u_adc_reg\.u_reg_0\._040_
*1135 u_adc_reg\.u_reg_0\._041_
*1136 u_adc_reg\.u_reg_0\._042_
*1137 u_adc_reg\.u_reg_0\._043_
*1138 u_adc_reg\.u_reg_0\._044_
*1139 u_adc_reg\.u_reg_0\._045_
*1140 u_adc_reg\.u_reg_0\._046_
*1141 u_adc_reg\.u_reg_0\._047_
*1142 u_adc_reg\.u_reg_0\._048_
*1143 u_adc_reg\.u_reg_0\._049_
*1144 u_adc_reg\.u_reg_0\._050_
*1145 u_adc_reg\.u_reg_0\._051_
*1146 u_adc_reg\.u_reg_0\._052_
*1147 u_adc_reg\.u_reg_0\._053_
*1148 u_adc_reg\.u_reg_0\._054_
*1149 u_adc_reg\.u_reg_0\._055_
*1150 u_adc_reg\.u_reg_0\._056_
*1151 u_adc_reg\.u_reg_0\._057_
*1152 u_adc_reg\.u_reg_0\._058_
*1153 u_adc_reg\.u_reg_0\._059_
*1154 u_adc_reg\.u_reg_0\._060_
*1155 u_adc_reg\.u_reg_0\._061_
*1156 u_adc_reg\.u_reg_0\._062_
*1157 u_adc_reg\.u_reg_0\._063_
*1158 u_adc_reg\.u_reg_0\._064_
*1159 u_adc_reg\.u_reg_0\._065_
*1160 u_adc_reg\.u_reg_0\._066_
*1161 u_adc_reg\.u_reg_0\._067_
*1162 u_adc_reg\.u_reg_0\.we\[0\]
*1163 u_adc_reg\.u_reg_0\.we\[1\]
*1164 u_adc_reg\.u_reg_0\.we\[2\]
*1165 u_adc_reg\.u_reg_0\.we\[3\]
*1166 ANTENNA_COMP_0\.x15_1_I
*1167 ANTENNA_COMP_0\.x6_B1
*1168 ANTENNA_COMP_0\.x7_C
*1169 ANTENNA_COMP_0\.x8_A1
*1170 ANTENNA_COMP_0\.x8_A2
*1171 ANTENNA_COMP_0\.x9_A1
*1172 ANTENNA_COMP_0\.x9_A2
*1173 ANTENNA_COMP_0\.x9_B1
*1174 ANTENNA_COMP_1\.x15_3_I
*1175 ANTENNA_COMP_1\.x15_4_I
*1176 ANTENNA_COMP_1\.x6_B1
*1177 ANTENNA_COMP_1\.x8_A1
*1178 ANTENNA_COMP_1\.x8_A2
*1179 ANTENNA_COMP_1\.x9_A1
*1180 ANTENNA_COMP_1\.x9_A2
*1181 ANTENNA_COMP_1\.x9_B1
*1182 ANTENNA_COMP_2\.x15_5_I
*1183 ANTENNA_COMP_2\.x15_6_I
*1184 ANTENNA_COMP_2\.x6_B1
*1185 ANTENNA_COMP_2\.x8_A1
*1186 ANTENNA_COMP_2\.x8_A2
*1187 ANTENNA_COMP_2\.x9_A1
*1188 ANTENNA_COMP_2\.x9_A2
*1189 ANTENNA_COMP_2\.x9_B1
*1190 ANTENNA_COMP_3\.x15_7_I
*1191 ANTENNA_COMP_3\.x15_8_I
*1192 ANTENNA_COMP_3\.x6_B1
*1193 ANTENNA_COMP_3\.x8_A1
*1194 ANTENNA_COMP_3\.x8_A2
*1195 ANTENNA_COMP_3\.x9_A1
*1196 ANTENNA_COMP_3\.x9_A2
*1197 ANTENNA_COMP_3\.x9_B1
*1198 ANTENNA_COMP_4\.x15_10_I
*1199 ANTENNA_COMP_4\.x15_9_I
*1200 ANTENNA_COMP_4\.x6_B1
*1201 ANTENNA_COMP_4\.x7_C
*1202 ANTENNA_COMP_4\.x8_A1
*1203 ANTENNA_COMP_4\.x8_A2
*1204 ANTENNA_COMP_4\.x9_A1
*1205 ANTENNA_COMP_4\.x9_A2
*1206 ANTENNA_COMP_4\.x9_B1
*1207 ANTENNA_COMP_5\.x15_11_I
*1208 ANTENNA_COMP_5\.x15_12_I
*1209 ANTENNA_COMP_5\.x6_B1
*1210 ANTENNA_COMP_5\.x7_C
*1211 ANTENNA_COMP_5\.x8_A1
*1212 ANTENNA_COMP_5\.x8_A2
*1213 ANTENNA_COMP_5\.x9_A1
*1214 ANTENNA_COMP_5\.x9_A2
*1215 ANTENNA_COMP_5\.x9_B1
*1216 ANTENNA_CTRL\._053__I
*1217 ANTENNA_CTRL\._055__A1
*1218 ANTENNA_CTRL\._055__A2
*1219 ANTENNA_CTRL\._057__I
*1220 ANTENNA_CTRL\._062__A1
*1221 ANTENNA_CTRL\._062__A2
*1222 ANTENNA_CTRL\._063__A1
*1223 ANTENNA_CTRL\._063__A2
*1224 ANTENNA_CTRL\._064__A1
*1225 ANTENNA_CTRL\._064__A2
*1226 ANTENNA_CTRL\._065__A1
*1227 ANTENNA_CTRL\._065__A2
*1228 ANTENNA_CTRL\._066__A1
*1229 ANTENNA_CTRL\._068__I
*1230 ANTENNA_CTRL\._069__I
*1231 ANTENNA_CTRL\._070__I
*1232 ANTENNA_CTRL\._071__I
*1233 ANTENNA_CTRL\._072__I
*1234 ANTENNA_CTRL\._073__I
*1235 ANTENNA_CTRL\._074__I
*1236 ANTENNA_CTRL\._075__I
*1237 ANTENNA_CTRL\._077__A2
*1238 ANTENNA_CTRL\._077__A3
*1239 ANTENNA_CTRL\._080__A1
*1240 ANTENNA_CTRL\._080__B2
*1241 ANTENNA_CTRL\._080__C
*1242 ANTENNA_CTRL\._081__A2
*1243 ANTENNA_CTRL\._081__A3
*1244 ANTENNA_CTRL\._082__A2
*1245 ANTENNA_CTRL\._082__A3
*1246 ANTENNA_CTRL\._083__C
*1247 ANTENNA_CTRL\._084__A2
*1248 ANTENNA_CTRL\._084__A3
*1249 ANTENNA_CTRL\._086__A2
*1250 ANTENNA_CTRL\._086__A3
*1251 ANTENNA_CTRL\._087__C
*1252 ANTENNA_CTRL\._088__A2
*1253 ANTENNA_CTRL\._088__A3
*1254 ANTENNA_CTRL\._090__A2
*1255 ANTENNA_CTRL\._090__A3
*1256 ANTENNA_CTRL\._091__C
*1257 ANTENNA_CTRL\._092__A2
*1258 ANTENNA_CTRL\._092__A3
*1259 ANTENNA_CTRL\._094__A2
*1260 ANTENNA_CTRL\._094__A3
*1261 ANTENNA_CTRL\._095__C
*1262 ANTENNA_CTRL\._096__A2
*1263 ANTENNA_CTRL\._096__A3
*1264 ANTENNA_CTRL\._098__A2
*1265 ANTENNA_CTRL\._098__A3
*1266 ANTENNA_CTRL\._099__C
*1267 ANTENNA_CTRL\._100__A2
*1268 ANTENNA_CTRL\._100__A3
*1269 ANTENNA_CTRL\._102__A2
*1270 ANTENNA_CTRL\._102__A3
*1271 ANTENNA_CTRL\._103__C
*1272 ANTENNA_CTRL\._105__A2
*1273 ANTENNA_CTRL\._105__A3
*1274 ANTENNA_CTRL\._106__A1
*1275 ANTENNA_CTRL\._106__A2
*1276 ANTENNA_CTRL\._108__A2
*1277 ANTENNA_CTRL\._109__A2
*1278 ANTENNA_CTRL\._110__A2
*1279 ANTENNA_CTRL\._111__A2
*1280 ANTENNA_CTRL\._112__A2
*1281 ANTENNA_CTRL\._113__A2
*1282 ANTENNA_CTRL\._114__A2
*1283 ANTENNA_CTRL\._115__A2
*1284 ANTENNA_CTRL\._116__CLK
*1285 ANTENNA_CTRL\._117__CLK
*1286 ANTENNA_CTRL\._118__CLK
*1287 ANTENNA_CTRL\._119__CLK
*1288 ANTENNA_CTRL\._120__CLK
*1289 ANTENNA_CTRL\._121__CLK
*1290 ANTENNA_CTRL\._122__CLK
*1291 ANTENNA_CTRL\._123__CLK
*1292 ANTENNA_CTRL\._124__CLK
*1293 ANTENNA_CTRL\._125__CLK
*1294 ANTENNA_CTRL\._126__CLK
*1295 ANTENNA_CTRL\._127__CLK
*1296 ANTENNA_CTRL\._128__CLK
*1297 ANTENNA_CTRL\._129__CLK
*1298 ANTENNA_CTRL\._130__CLK
*1299 ANTENNA_CTRL\._131__CLK
*1300 ANTENNA_CTRL\._132__CLK
*1301 ANTENNA_CTRL\._132__RN
*1302 ANTENNA_CTRL\._133__CLK
*1303 ANTENNA_CTRL\._133__RN
*1304 ANTENNA__07__S0
*1305 ANTENNA__07__S1
*1306 ANTENNA__09__A1
*1307 ANTENNA__10__I
*1308 ANTENNA__11__I
*1309 ANTENNA__12__B
*1310 ANTENNA__13__A1
*1311 ANTENNA__47__I
*1312 ANTENNA_clkbuf_0_COMP_1\.net2_I
*1313 ANTENNA_clkbuf_0_CTRL\.cmp_I
*1314 ANTENNA_clkbuf_0_clk_I
*1315 ANTENNA_clkbuf_1_0__f_COMP_1\.net2_I
*1316 ANTENNA_clkbuf_1_0__f_COMP_2\.net4_I
*1317 ANTENNA_clkbuf_1_0__f_COMP_4\.net2_I
*1318 ANTENNA_clkbuf_1_1__f_COMP_1\.net2_I
*1319 ANTENNA_clkbuf_1_1__f_COMP_2\.net4_I
*1320 ANTENNA_clkbuf_1_1__f_COMP_4\.net2_I
*1321 ANTENNA_clkbuf_2_0__f_clk_I
*1322 ANTENNA_clkbuf_2_1__f_clk_I
*1323 ANTENNA_clkbuf_2_2__f_clk_I
*1324 ANTENNA_clkbuf_2_3__f_clk_I
*1325 ANTENNA_clone1_I
*1326 ANTENNA_fanout100_I
*1327 ANTENNA_fanout101_I
*1328 ANTENNA_fanout102_I
*1329 ANTENNA_fanout103_I
*1330 ANTENNA_fanout104_I
*1331 ANTENNA_fanout105_I
*1332 ANTENNA_fanout106_I
*1333 ANTENNA_fanout107_I
*1334 ANTENNA_fanout108_I
*1335 ANTENNA_fanout109_I
*1336 ANTENNA_fanout110_I
*1337 ANTENNA_fanout111_I
*1338 ANTENNA_fanout112_I
*1339 ANTENNA_fanout113_I
*1340 ANTENNA_fanout115_I
*1341 ANTENNA_fanout116_I
*1342 ANTENNA_fanout93_I
*1343 ANTENNA_fanout94_I
*1344 ANTENNA_fanout95_I
*1345 ANTENNA_fanout96_I
*1346 ANTENNA_fanout97_I
*1347 ANTENNA_fanout98_I
*1348 ANTENNA_fanout99_I
*1349 ANTENNA_input10_I
*1350 ANTENNA_input11_I
*1351 ANTENNA_input12_I
*1352 ANTENNA_input13_I
*1353 ANTENNA_input14_I
*1354 ANTENNA_input15_I
*1355 ANTENNA_input16_I
*1356 ANTENNA_input17_I
*1357 ANTENNA_input18_I
*1358 ANTENNA_input19_I
*1359 ANTENNA_input1_I
*1360 ANTENNA_input20_I
*1361 ANTENNA_input21_I
*1362 ANTENNA_input22_I