*SPEF "ieee 1481-1999"
*DESIGN "temp_sensor"
*DATE "11:11:11 Fri 11 11, 1111"
*VENDOR "OpenRCX"
*PROGRAM "Parallel Extraction"
*VERSION "1.0"
*DESIGN_FLOW "NAME_SCOPE LOCAL" "PIN_CAP NONE"
*DIVIDER /
*DELIMITER :
*BUS_DELIMITER []
*T_UNIT 1 NS
*C_UNIT 1 PF
*R_UNIT 1 OHM
*L_UNIT 1 HENRY

*NAME_MAP
*1 clk
*2 i_wb_addr[0]
*3 i_wb_addr[10]
*4 i_wb_addr[11]
*5 i_wb_addr[12]
*6 i_wb_addr[13]
*7 i_wb_addr[14]
*8 i_wb_addr[15]
*9 i_wb_addr[16]
*10 i_wb_addr[17]
*11 i_wb_addr[18]
*12 i_wb_addr[19]
*13 i_wb_addr[1]
*14 i_wb_addr[20]
*15 i_wb_addr[21]
*16 i_wb_addr[22]
*17 i_wb_addr[23]
*18 i_wb_addr[24]
*19 i_wb_addr[25]
*20 i_wb_addr[26]
*21 i_wb_addr[27]
*22 i_wb_addr[28]
*23 i_wb_addr[29]
*24 i_wb_addr[2]
*25 i_wb_addr[30]
*26 i_wb_addr[31]
*27 i_wb_addr[3]
*28 i_wb_addr[4]
*29 i_wb_addr[5]
*30 i_wb_addr[6]
*31 i_wb_addr[7]
*32 i_wb_addr[8]
*33 i_wb_addr[9]
*34 i_wb_cyc
*35 i_wb_data[0]
*36 i_wb_data[10]
*37 i_wb_data[11]
*38 i_wb_data[12]
*39 i_wb_data[13]
*40 i_wb_data[14]
*41 i_wb_data[15]
*42 i_wb_data[16]
*43 i_wb_data[17]
*44 i_wb_data[18]
*45 i_wb_data[19]
*46 i_wb_data[1]
*47 i_wb_data[20]
*48 i_wb_data[21]
*49 i_wb_data[22]
*50 i_wb_data[23]
*51 i_wb_data[24]
*52 i_wb_data[25]
*53 i_wb_data[26]
*54 i_wb_data[27]
*55 i_wb_data[28]
*56 i_wb_data[29]
*57 i_wb_data[2]
*58 i_wb_data[30]
*59 i_wb_data[31]
*60 i_wb_data[3]
*61 i_wb_data[4]
*62 i_wb_data[5]
*63 i_wb_data[6]
*64 i_wb_data[7]
*65 i_wb_data[8]
*66 i_wb_data[9]
*67 i_wb_stb
*68 i_wb_we
*69 net69
*70 net70
*71 net71
*72 net72
*73 net73
*74 net74
*75 net75
*76 net76
*77 io_out[0]
*78 io_out[1]
*79 io_out[2]
*80 io_out[3]
*81 io_out[4]
*82 io_out[5]
*83 io_out[6]
*84 io_out[7]
*85 o_wb_ack
*86 o_wb_data[0]
*87 o_wb_data[1]
*88 o_wb_data[2]
*89 o_wb_data[3]
*90 o_wb_data[4]
*91 o_wb_data[5]
*92 o_wb_data[6]
*93 o_wb_data[7]
*94 net77
*95 reset
*98 _0000_
*99 _0001_
*100 _0002_
*101 _0003_
*102 _0004_
*103 _0005_
*104 _0006_
*105 _0007_
*106 _0008_
*107 _0009_
*108 _0010_
*109 _0011_
*110 _0012_
*111 _0013_
*112 _0014_
*113 _0015_
*114 _0016_
*115 _0017_
*116 _0018_
*117 _0019_
*118 _0020_
*119 _0021_
*120 _0022_
*121 _0023_
*122 _0024_
*123 _0025_
*124 _0026_
*125 _0027_
*126 _0028_
*127 _0029_
*128 _0030_
*129 _0031_
*130 _0032_
*131 _0033_
*132 _0034_
*133 _0035_
*134 _0036_
*135 _0037_
*136 _0038_
*137 _0039_
*138 _0040_
*139 _0041_
*140 _0042_
*141 _0043_
*142 _0044_
*143 _0045_
*144 _0046_
*145 _0047_
*146 _0048_
*147 _0049_
*148 _0050_
*149 _0051_
*150 _0052_
*151 _0053_
*152 _0054_
*153 _0055_
*154 _0056_
*155 _0057_
*156 _0058_
*157 _0059_
*158 _0060_
*159 _0061_
*160 _0062_
*161 _0063_
*162 _0064_
*163 _0065_
*164 _0066_
*165 _0067_
*166 _0068_
*167 _0069_
*168 _0070_
*169 _0071_
*170 _0072_
*171 _0073_
*172 _0074_
*173 _0075_
*174 _0076_
*175 _0077_
*176 _0078_
*177 _0079_
*178 _0080_
*179 _0081_
*180 _0082_
*181 _0083_
*182 _0084_
*183 _0085_
*184 _0086_
*185 _0087_
*186 _0088_
*187 _0089_
*188 _0090_
*189 _0091_
*190 _0092_
*191 _0093_
*192 _0094_
*193 _0095_
*194 _0096_
*195 _0097_
*196 _0098_
*197 _0099_
*198 _0100_
*199 _0101_
*200 _0102_
*201 _0103_
*202 _0104_
*203 _0105_
*204 _0106_
*205 _0107_
*206 _0108_
*207 _0109_
*208 _0110_
*209 _0111_
*210 _0112_
*211 _0113_
*212 _0114_
*213 _0115_
*214 _0116_
*215 _0117_
*216 _0118_
*217 _0119_
*218 _0120_
*219 _0121_
*220 _0122_
*221 _0123_
*222 _0124_
*223 _0125_
*224 _0126_
*225 _0127_
*226 _0128_
*227 _0129_
*228 _0130_
*229 _0131_
*230 _0132_
*231 _0133_
*232 _0134_
*233 _0135_
*234 _0136_
*235 _0137_
*236 _0138_
*237 _0139_
*238 _0140_
*239 _0141_
*240 _0142_
*241 _0143_
*242 _0144_
*243 _0145_
*244 _0146_
*245 _0147_
*246 _0148_
*247 _0149_
*248 _0150_
*249 _0151_
*250 _0152_
*251 _0153_
*252 _0154_
*253 _0155_
*254 _0156_
*255 _0157_
*256 _0158_
*257 _0159_
*258 _0160_
*259 _0161_
*260 _0162_
*261 _0163_
*262 _0164_
*263 _0165_
*264 _0166_
*265 _0167_
*266 _0168_
*267 _0169_
*268 _0170_
*269 _0171_
*270 _0172_
*271 _0173_
*272 _0174_
*273 _0175_
*274 _0176_
*275 _0177_
*276 _0178_
*277 _0179_
*278 _0180_
*279 _0181_
*280 _0182_
*281 _0183_
*282 _0184_
*283 _0185_
*284 _0186_
*285 _0187_
*286 _0188_
*287 _0189_
*288 _0190_
*289 _0191_
*290 _0192_
*291 _0193_
*292 _0194_
*293 _0195_
*294 _0196_
*295 _0197_
*296 _0198_
*297 _0199_
*298 _0200_
*299 _0201_
*300 _0202_
*301 _0203_
*302 _0204_
*303 _0205_
*304 _0206_
*305 _0207_
*306 _0208_
*307 _0209_
*308 _0210_
*309 _0211_
*310 _0212_
*311 _0213_
*312 _0214_
*313 _0215_
*314 _0216_
*315 _0217_
*316 _0218_
*317 _0219_
*318 _0220_
*319 _0221_
*320 _0222_
*321 _0223_
*322 _0224_
*323 _0225_
*324 _0226_
*325 _0227_
*326 _0228_
*327 _0229_
*328 _0230_
*329 _0231_
*330 _0232_
*331 _0233_
*332 _0234_
*333 _0235_
*334 _0236_
*335 _0237_
*336 _0238_
*337 _0239_
*338 _0240_
*339 _0241_
*340 _0242_
*341 _0243_
*342 _0244_
*343 _0245_
*344 _0246_
*345 _0247_
*346 _0248_
*347 _0249_
*348 _0250_
*349 _0251_
*350 _0252_
*351 _0253_
*352 _0254_
*353 _0255_
*354 _0256_
*355 _0257_
*356 _0258_
*357 _0259_
*358 _0260_
*359 _0261_
*360 _0262_
*361 _0263_
*362 _0264_
*363 _0265_
*364 _0266_
*365 _0267_
*366 _0268_
*367 _0269_
*368 _0270_
*369 _0271_
*370 _0272_
*371 _0273_
*372 _0274_
*373 _0275_
*374 _0276_
*375 _0277_
*376 _0278_
*377 _0279_
*378 _0280_
*379 _0281_
*380 _0282_
*381 _0283_
*382 _0284_
*383 _0285_
*384 _0286_
*385 _0287_
*386 _0288_
*387 _0289_
*388 _0290_
*389 _0291_
*390 _0292_
*391 _0293_
*392 _0294_
*393 _0295_
*394 _0296_
*395 _0297_
*396 _0298_
*397 _0299_
*398 _0300_
*399 _0301_
*400 _0302_
*401 _0303_
*402 _0304_
*403 _0305_
*404 _0306_
*405 _0307_
*406 _0308_
*407 _0309_
*408 _0310_
*409 _0311_
*410 _0312_
*411 _0313_
*412 _0314_
*413 _0315_
*414 _0316_
*415 _0317_
*416 _0318_
*417 _0319_
*418 _0320_
*419 _0321_
*420 _0322_
*421 _0323_
*422 _0324_
*423 _0325_
*424 _0326_
*425 _0327_
*426 _0328_
*427 _0329_
*428 _0330_
*429 _0331_
*430 _0332_
*431 _0333_
*432 _0334_
*433 _0335_
*434 _0336_
*435 _0337_
*436 _0338_
*437 _0339_
*438 _0340_
*439 _0341_
*440 _0342_
*441 _0343_
*442 _0344_
*443 _0345_
*444 _0346_
*445 _0347_
*446 _0348_
*447 _0349_
*448 _0350_
*449 _0351_
*450 _0352_
*451 _0353_
*452 _0354_
*453 _0355_
*454 _0356_
*455 _0357_
*456 _0358_
*457 _0359_
*458 _0360_
*459 _0361_
*460 _0362_
*461 _0363_
*462 _0364_
*463 _0365_
*464 _0366_
*465 _0367_
*466 _0368_
*467 _0369_
*468 _0370_
*469 _0371_
*470 _0372_
*471 _0373_
*472 _0374_
*473 _0375_
*474 _0376_
*475 _0377_
*476 _0378_
*477 _0379_
*478 _0380_
*479 _0381_
*480 _0382_
*481 _0383_
*482 _0384_
*483 _0385_
*484 _0386_
*485 _0387_
*486 _0388_
*487 _0389_
*488 _0390_
*489 _0391_
*490 _0392_
*491 _0393_
*492 _0394_
*493 _0395_
*494 _0396_
*495 _0397_
*496 _0398_
*497 _0399_
*498 _0400_
*499 _0401_
*500 _0402_
*501 _0403_
*502 _0404_
*503 _0405_
*504 _0406_
*505 _0407_
*506 _0408_
*507 _0409_
*508 _0410_
*509 _0411_
*510 _0412_
*511 _0413_
*512 _0414_
*513 _0415_
*514 _0416_
*515 _0417_
*516 _0418_
*517 _0419_
*518 _0420_
*519 _0421_
*520 _0422_
*521 _0423_
*522 _0424_
*523 _0425_
*524 _0426_
*525 _0427_
*526 _0428_
*527 _0429_
*528 _0430_
*529 _0431_
*530 _0432_
*531 _0433_
*532 _0434_
*533 _0435_
*534 _0436_
*535 _0437_
*536 _0438_
*537 _0439_
*538 _0440_
*539 _0441_
*540 _0442_
*541 _0443_
*542 _0444_
*543 _0445_
*544 _0446_
*545 _0447_
*546 _0448_
*547 _0449_
*548 _0450_
*549 _0451_
*550 _0452_
*551 _0453_
*552 _0454_
*553 _0455_
*554 _0456_
*555 _0457_
*556 _0458_
*557 _0459_
*558 _0460_
*559 _0461_
*560 _0462_
*561 _0463_
*562 _0464_
*563 _0465_
*564 _0466_
*565 _0467_
*566 _0468_
*567 _0469_
*568 _0470_
*569 _0471_
*570 _0472_
*571 _0473_
*572 _0474_
*573 _0475_
*574 _0476_
*575 _0477_
*576 _0478_
*577 _0479_
*578 _0480_
*579 _0481_
*580 _0482_
*581 _0483_
*582 _0484_
*583 _0485_
*584 _0486_
*585 _0487_
*586 _0488_
*587 _0489_
*588 _0490_
*589 _0491_
*590 _0492_
*591 _0493_
*592 _0494_
*593 _0495_
*594 _0496_
*595 _0497_
*596 _0498_
*597 _0499_
*598 _0500_
*599 _0501_
*600 _0502_
*601 _0503_
*602 _0504_
*603 _0505_
*604 _0506_
*605 _0507_
*606 _0508_
*607 _0509_
*608 _0510_
*609 _0511_
*610 _0512_
*611 _0513_
*612 _0514_
*613 _0515_
*614 _0516_
*615 _0517_
*616 _0518_
*617 _0519_
*618 _0520_
*619 _0521_
*620 _0522_
*621 _0523_
*622 _0524_
*623 _0525_
*624 _0526_
*625 _0527_
*626 _0528_
*627 _0529_
*628 _0530_
*629 _0531_
*630 _0532_
*631 _0533_
*632 _0534_
*633 _0535_
*634 _0536_
*635 _0537_
*636 _0538_
*637 _0539_
*638 _0540_
*639 _0541_
*640 _0542_
*641 _0543_
*642 _0544_
*643 _0545_
*644 _0546_
*645 _0547_
*646 _0548_
*647 _0549_
*648 _0550_
*649 _0551_
*650 _0552_
*651 _0553_
*652 _0554_
*653 _0555_
*654 _0556_
*655 _0557_
*656 _0558_
*657 _0559_
*658 _0560_
*659 _0561_
*660 _0562_
*661 _0563_
*662 _0564_
*663 _0565_
*664 _0566_
*665 _0567_
*666 _0568_
*667 _0569_
*668 _0570_
*669 _0571_
*670 _0572_
*671 _0573_
*672 _0574_
*673 _0575_
*674 _0576_
*675 _0577_
*676 _0578_
*677 _0579_
*678 _0580_
*679 _0581_
*680 _0582_
*681 _0583_
*682 _0584_
*683 _0585_
*684 _0586_
*685 _0587_
*686 _0588_
*687 _0589_
*688 _0590_
*689 _0591_
*690 _0592_
*691 _0593_
*692 _0594_
*693 _0595_
*694 _0596_
*695 _0597_
*696 _0598_
*697 _0599_
*698 _0600_
*699 _0601_
*700 _0602_
*701 _0603_
*702 _0604_
*703 _0605_
*704 _0606_
*705 _0607_
*706 _0608_
*707 _0609_
*708 _0610_
*709 _0611_
*710 _0612_
*711 _0613_
*712 _0614_
*713 _0615_
*714 _0616_
*715 _0617_
*716 _0618_
*717 _0619_
*718 _0620_
*719 _0621_
*720 _0622_
*721 _0623_
*722 _0624_
*723 _0625_
*724 _0626_
*725 _0627_
*726 _0628_
*727 _0629_
*728 _0630_
*729 _0631_
*730 _0632_
*731 _0633_
*732 _0634_
*733 _0635_
*734 _0636_
*735 _0637_
*736 _0638_
*737 _0639_
*738 _0640_
*739 _0641_
*740 _0642_
*741 _0643_
*742 _0644_
*743 _0645_
*744 _0646_
*745 _0647_
*746 _0648_
*747 _0649_
*748 _0650_
*749 _0651_
*750 _0652_
*751 _0653_
*752 _0654_
*753 _0655_
*754 _0656_
*755 _0657_
*756 _0658_
*757 _0659_
*758 _0660_
*759 _0661_
*760 _0662_
*761 _0663_
*762 _0664_
*763 _0665_
*764 _0666_
*765 _0667_
*766 _0668_
*767 _0669_
*768 _0670_
*769 _0671_
*770 _0672_
*771 _0673_
*772 _0674_
*773 _0675_
*774 _0676_
*775 _0677_
*776 _0678_
*777 _0679_
*778 _0680_
*779 _0681_
*780 _0682_
*781 _0683_
*782 _0684_
*783 _0685_
*784 _0686_
*785 _0687_
*786 _0688_
*787 _0689_
*788 _0690_
*789 _0691_
*790 _0692_
*791 _0693_
*792 _0694_
*793 _0695_
*794 _0696_
*795 _0697_
*796 _0698_
*797 _0699_
*798 _0700_
*799 _0701_
*800 _0702_
*801 _0703_
*802 _0704_
*803 _0705_
*804 _0706_
*805 _0707_
*806 _0708_
*807 _0709_
*808 _0710_
*809 _0711_
*810 _0712_
*811 _0713_
*812 _0714_
*813 _0715_
*814 _0716_
*815 _0717_
*816 _0718_
*817 _0719_
*818 _0720_
*819 _0721_
*820 _0722_
*821 _0723_
*822 _0724_
*823 _0725_
*824 _0726_
*825 _0727_
*826 _0728_
*827 _0729_
*828 _0730_
*829 _0731_
*830 _0732_
*831 _0733_
*832 _0734_
*833 _0735_
*834 _0736_
*835 _0737_
*836 _0738_
*837 _0739_
*838 _0740_
*839 _0741_
*840 _0742_
*841 _0743_
*842 _0744_
*843 _0745_
*844 _0746_
*845 _0747_
*846 _0748_
*847 _0749_
*848 _0750_
*849 _0751_
*850 _0752_
*851 _0753_
*852 _0754_
*853 _0755_
*854 _0756_
*855 _0757_
*856 _0758_
*857 _0759_
*858 _0760_
*859 _0761_
*860 _0762_
*861 _0763_
*862 _0764_
*863 _0765_
*864 _0766_
*865 _0767_
*866 _0768_
*867 _0769_
*868 _0770_
*869 _0771_
*870 _0772_
*871 _0773_
*872 _0774_
*873 _0775_
*874 _0776_
*875 _0777_
*876 _0778_
*877 _0779_
*878 _0780_
*879 _0781_
*880 _0782_
*881 _0783_
*882 _0784_
*883 _0785_
*884 _0786_
*885 _0787_
*886 _0788_
*887 _0789_
*888 _0790_
*889 _0791_
*890 _0792_
*891 _0793_
*892 _0794_
*893 _0795_
*894 _0796_
*895 _0797_
*896 _0798_
*897 _0799_
*898 _0800_
*899 _0801_
*900 _0802_
*901 _0803_
*902 _0804_
*903 _0805_
*904 _0806_
*905 _0807_
*906 _0808_
*907 _0809_
*908 _0810_
*909 _0811_
*910 _0812_
*911 _0813_
*912 _0814_
*913 _0815_
*914 _0816_
*915 _0817_
*916 _0818_
*917 _0819_
*918 _0820_
*919 _0821_
*920 _0822_
*921 _0823_
*922 _0824_
*923 _0825_
*924 _0826_
*925 _0827_
*926 _0828_
*927 _0829_
*928 _0830_
*929 _0831_
*930 _0832_
*931 _0833_
*932 _0834_
*933 _0835_
*934 _0836_
*935 _0837_
*936 _0838_
*937 _0839_
*938 _0840_
*939 _0841_
*940 _0842_
*941 _0843_
*942 _0844_
*943 _0845_
*944 _0846_
*945 _0847_
*946 _0848_
*947 _0849_
*948 _0850_
*949 _0851_
*950 _0852_
*951 _0853_
*952 _0854_
*953 _0855_
*954 _0856_
*955 _0857_
*956 _0858_
*957 _0859_
*958 _0860_
*959 _0861_
*960 _0862_
*961 _0863_
*962 _0864_
*963 _0865_
*964 _0866_
*965 _0867_
*966 _0868_
*967 _0869_
*968 _0870_
*969 _0871_
*970 _0872_
*971 _0873_
*972 _0874_
*973 _0875_
*974 _0876_
*975 _0877_
*976 _0878_
*977 _0879_
*978 _0880_
*979 _0881_
*980 _0882_
*981 _0883_
*982 _0884_
*983 _0885_
*984 _0886_
*985 _0887_
*986 _0888_
*987 _0889_
*988 _0890_
*989 _0891_
*990 _0892_
*991 _0893_
*992 _0894_
*993 _0895_
*994 _0896_
*995 _0897_
*996 _0898_
*997 _0899_
*998 _0900_
*999 _0901_
*1000 _0902_
*1001 _0903_
*1002 _0904_
*1003 _0905_
*1004 _0906_
*1005 _0907_
*1006 _0908_
*1007 _0909_
*1008 _0910_
*1009 _0911_
*1010 _0912_
*1011 _0913_
*1012 _0914_
*1013 _0915_
*1014 _0916_
*1015 _0917_
*1016 _0918_
*1017 _0919_
*1018 _0920_
*1019 _0921_
*1020 _0922_
*1021 _0923_
*1022 _0924_
*1023 _0925_
*1024 _0926_
*1025 _0927_
*1026 _0928_
*1027 _0929_
*1028 _0930_
*1029 _0931_
*1030 _0932_
*1031 _0933_
*1032 _0934_
*1033 _0935_
*1034 _0936_
*1035 _0937_
*1036 _0938_
*1037 _0939_
*1038 _0940_
*1039 _0941_
*1040 _0942_
*1041 _0943_
*1042 _0944_
*1043 _0945_
*1044 _0946_
*1045 _0947_
*1046 _0948_
*1047 _0949_
*1048 _0950_
*1049 _0951_
*1050 _0952_
*1051 _0953_
*1052 _0954_
*1053 _0955_
*1054 _0956_
*1055 _0957_
*1056 _0958_
*1057 _0959_
*1058 _0960_
*1059 _0961_
*1060 _0962_
*1061 _0963_
*1062 _0964_
*1063 _0965_
*1064 _0966_
*1065 _0967_
*1066 _0968_
*1067 _0969_
*1068 _0970_
*1069 _0971_
*1070 _0972_
*1071 _0973_
*1072 _0974_
*1073 _0975_
*1074 _0976_
*1075 _0977_
*1076 _0978_
*1077 cal_ena
*1078 cal_lut\[100\]
*1079 cal_lut\[101\]
*1080 cal_lut\[102\]
*1081 cal_lut\[103\]
*1082 cal_lut\[104\]
*1083 cal_lut\[105\]
*1084 cal_lut\[106\]
*1085 cal_lut\[107\]
*1086 cal_lut\[108\]
*1087 cal_lut\[109\]
*1088 cal_lut\[10\]
*1089 cal_lut\[110\]
*1090 cal_lut\[111\]
*1091 cal_lut\[112\]
*1092 cal_lut\[113\]
*1093 cal_lut\[114\]
*1094 cal_lut\[115\]
*1095 cal_lut\[116\]
*1096 cal_lut\[117\]
*1097 cal_lut\[118\]
*1098 cal_lut\[119\]
*1099 cal_lut\[11\]
*1100 cal_lut\[120\]
*1101 cal_lut\[121\]
*1102 cal_lut\[122\]
*1103 cal_lut\[123\]
*1104 cal_lut\[124\]
*1105 cal_lut\[125\]
*1106 cal_lut\[126\]
*1107 cal_lut\[127\]
*1108 cal_lut\[128\]
*1109 cal_lut\[129\]
*1110 cal_lut\[12\]
*1111 cal_lut\[130\]
*1112 cal_lut\[131\]
*1113 cal_lut\[132\]
*1114 cal_lut\[133\]
*1115 cal_lut\[134\]
*1116 cal_lut\[135\]
*1117 cal_lut\[136\]
*1118 cal_lut\[137\]
*1119 cal_lut\[138\]
*1120 cal_lut\[139\]
*1121 cal_lut\[13\]
*1122 cal_lut\[140\]
*1123 cal_lut\[141\]
*1124 cal_lut\[142\]
*1125 cal_lut\[143\]
*1126 cal_lut\[144\]
*1127 cal_lut\[145\]
*1128 cal_lut\[146\]
*1129 cal_lut\[147\]
*1130 cal_lut\[148\]
*1131 cal_lut\[149\]
*1132 cal_lut\[14\]
*1133 cal_lut\[150\]
*1134 cal_lut\[151\]
*1135 cal_lut\[152\]
*1136 cal_lut\[153\]
*1137 cal_lut\[154\]
*1138 cal_lut\[155\]
*1139 cal_lut\[156\]
*1140 cal_lut\[157\]
*1141 cal_lut\[158\]
*1142 cal_lut\[159\]
*1143 cal_lut\[15\]
*1144 cal_lut\[160\]
*1145 cal_lut\[161\]
*1146 cal_lut\[162\]
*1147 cal_lut\[163\]
*1148 cal_lut\[164\]
*1149 cal_lut\[165\]
*1150 cal_lut\[166\]
*1151 cal_lut\[167\]
*1152 cal_lut\[168\]
*1153 cal_lut\[169\]
*1154 cal_lut\[16\]
*1155 cal_lut\[170\]
*1156 cal_lut\[171\]
*1157 cal_lut\[172\]
*1158 cal_lut\[173\]
*1159 cal_lut\[174\]
*1160 cal_lut\[175\]
*1161 cal_lut\[176\]
*1162 cal_lut\[177\]
*1163 cal_lut\[178\]
*1164 cal_lut\[179\]
*1165 cal_lut\[17\]
*1166 cal_lut\[180\]
*1167 cal_lut\[181\]
*1168 cal_lut\[182\]
*1169 cal_lut\[183\]
*1170 cal_lut\[184\]
*1171 cal_lut\[185\]
*1172 cal_lut\[186\]
*1173 cal_lut\[187\]
*1174 cal_lut\[188\]
*1175 cal_lut\[189\]
*1176 cal_lut\[18\]
*1177 cal_lut\[190\]
*1178 cal_lut\[191\]
*1179 cal_lut\[192\]
*1180 cal_lut\[19\]
*1181 cal_lut\[1\]
*1182 cal_lut\[20\]
*1183 cal_lut\[21\]
*1184 cal_lut\[22\]
*1185 cal_lut\[23\]
*1186 cal_lut\[24\]
*1187 cal_lut\[25\]
*1188 cal_lut\[26\]
*1189 cal_lut\[27\]
*1190 cal_lut\[28\]
*1191 cal_lut\[29\]
*1192 cal_lut\[2\]
*1193 cal_lut\[30\]
*1194 cal_lut\[31\]
*1195 cal_lut\[32\]
*1196 cal_lut\[33\]
*1197 cal_lut\[34\]
*1198 cal_lut\[35\]
*1199 cal_lut\[36\]
*1200 cal_lut\[37\]
*1201 cal_lut\[38\]
*1202 cal_lut\[39\]
*1203 cal_lut\[3\]
*1204 cal_lut\[40\]
*1205 cal_lut\[41\]
*1206 cal_lut\[42\]
*1207 cal_lut\[43\]
*1208 cal_lut\[44\]
*1209 cal_lut\[45\]
*1210 cal_lut\[46\]
*1211 cal_lut\[47\]
*1212 cal_lut\[48\]
*1213 cal_lut\[49\]
*1214 cal_lut\[4\]
*1215 cal_lut\[50\]
*1216 cal_lut\[51\]
*1217 cal_lut\[52\]
*1218 cal_lut\[53\]
*1219 cal_lut\[54\]
*1220 cal_lut\[55\]
*1221 cal_lut\[56\]
*1222 cal_lut\[57\]
*1223 cal_lut\[58\]
*1224 cal_lut\[59\]
*1225 cal_lut\[5\]
*1226 cal_lut\[60\]
*1227 cal_lut\[61\]
*1228 cal_lut\[62\]
*1229 cal_lut\[63\]
*1230 cal_lut\[64\]
*1231 cal_lut\[65\]
*1232 cal_lut\[66\]
*1233 cal_lut\[67\]
*1234 cal_lut\[68\]
*1235 cal_lut\[69\]
*1236 cal_lut\[6\]
*1237 cal_lut\[70\]
*1238 cal_lut\[71\]
*1239 cal_lut\[72\]
*1240 cal_lut\[73\]
*1241 cal_lut\[74\]
*1242 cal_lut\[75\]
*1243 cal_lut\[76\]
*1244 cal_lut\[77\]
*1245 cal_lut\[78\]
*1246 cal_lut\[79\]
*1247 cal_lut\[7\]
*1248 cal_lut\[80\]
*1249 cal_lut\[81\]
*1250 cal_lut\[82\]
*1251 cal_lut\[83\]
*1252 cal_lut\[84\]
*1253 cal_lut\[85\]
*1254 cal_lut\[86\]
*1255 cal_lut\[87\]
*1256 cal_lut\[88\]
*1257 cal_lut\[89\]
*1258 cal_lut\[8\]
*1259 cal_lut\[90\]
*1260 cal_lut\[91\]
*1261 cal_lut\[92\]
*1262 cal_lut\[93\]
*1263 cal_lut\[94\]
*1264 cal_lut\[95\]
*1265 cal_lut\[96\]
*1266 cal_lut\[97\]
*1267 cal_lut\[98\]
*1268 cal_lut\[99\]
*1269 cal_lut\[9\]
*1270 clknet_0__0551_
*1271 clknet_0__0553_
*1272 clknet_0__0889_
*1273 clknet_0__0902_
*1274 clknet_0_clk
*1275 clknet_0_net81
*1276 clknet_0_temp1\.i_precharge_n
*1277 clknet_1_0__leaf__0551_
*1278 clknet_1_0__leaf__0553_
*1279 clknet_1_0__leaf__0889_
*1280 clknet_1_0__leaf__0902_
*1281 clknet_1_0__leaf_clk
*1282 clknet_1_0__leaf_net81
*1283 clknet_1_0__leaf_temp1\.i_precharge_n
*1284 clknet_1_1__leaf__0551_
*1285 clknet_1_1__leaf__0553_
*1286 clknet_1_1__leaf__0889_
*1287 clknet_1_1__leaf__0902_
*1288 clknet_1_1__leaf_clk
*1289 clknet_1_1__leaf_net81
*1290 clknet_1_1__leaf_temp1\.i_precharge_n
*1291 clknet_leaf_0_clk
*1292 clknet_leaf_10_clk
*1293 clknet_leaf_11_clk
*1294 clknet_leaf_12_clk
*1295 clknet_leaf_13_clk
*1296 clknet_leaf_14_clk
*1297 clknet_leaf_15_clk
*1298 clknet_leaf_16_clk
*1299 clknet_leaf_17_clk
*1300 clknet_leaf_18_clk
*1301 clknet_leaf_19_clk
*1302 clknet_leaf_1_clk
*1303 clknet_leaf_2_clk
*1304 clknet_leaf_3_clk
*1305 clknet_leaf_4_clk
*1306 clknet_leaf_5_clk
*1307 clknet_leaf_6_clk
*1308 clknet_leaf_7_clk
*1309 clknet_leaf_8_clk
*1310 clknet_leaf_9_clk
*1311 ctr\[0\]
*1312 ctr\[10\]
*1313 ctr\[11\]
*1314 ctr\[12\]
*1315 ctr\[1\]
*1316 ctr\[2\]
*1317 ctr\[3\]
*1318 ctr\[4\]
*1319 ctr\[5\]
*1320 ctr\[6\]
*1321 ctr\[7\]
*1322 ctr\[8\]
*1323 ctr\[9\]
*1324 dbg3\[0\]
*1325 dbg3\[1\]
*1326 dbg3\[2\]
*1327 dbg3\[3\]
*1328 dbg3\[4\]
*1329 dbg3\[5\]
*1330 dec1\._000_
*1331 dec1\._001_
*1332 dec1\._002_
*1333 dec1\._003_
*1334 dec1\._004_
*1335 dec1\._005_
*1336 dec1\._006_
*1337 dec1\._007_
*1338 dec1\._008_
*1339 dec1\._009_
*1340 dec1\._010_
*1341 dec1\._011_
*1342 dec1\._012_
*1343 dec1\._013_
*1344 dec1\._014_
*1345 dec1\._015_
*1346 dec1\._016_
*1347 dec1\._017_
*1348 dec1\._018_
*1349 dec1\._019_
*1350 dec1\._020_
*1351 dec1\._021_
*1352 dec1\._022_
*1353 dec1\._023_
*1354 dec1\._024_
*1355 dec1\._025_
*1356 dec1\._026_
*1357 dec1\._027_
*1358 dec1\._028_
*1359 dec1\._029_
*1360 dec1\._030_
*1361 dec1\._031_
*1362 dec1\._032_
*1363 dec1\._033_
*1364 dec1\._034_
*1365 dec1\._035_
*1366 dec1\._036_
*1367 dec1\._037_
*1368 dec1\._038_
*1369 dec1\._039_
*1370 dec1\._040_
*1371 dec1\._041_
*1372 dec1\._042_
*1373 dec1\._043_
*1374 dec1\._044_
*1375 dec1\._045_
*1376 dec1\._046_
*1377 dec1\._047_
*1378 dec1\._048_
*1379 dec1\.i_bin\[0\]
*1380 dec1\.i_bin\[1\]
*1381 dec1\.i_bin\[2\]
*1382 dec1\.i_bin\[3\]
*1383 dec1\.i_bin\[4\]
*1384 dec1\.i_bin\[5\]
*1385 dec1\.i_bin\[6\]
*1386 dec1\.i_ones
*1387 dec1\.i_tens
*1388 dec1\.o_dec\[0\]
*1389 dec1\.o_dec\[1\]
*1390 dec1\.o_dec\[2\]
*1391 dec1\.o_dec\[3\]
*1392 en_dbg\[0\]
*1393 en_dbg\[1\]
*1394 en_dbg\[2\]
*1395 net1
*1396 net10
*1397 net11
*1398 net12
*1399 net13
*1400 net14
*1401 net15
*1402 net16
*1403 net17
*1404 net18
*1405 net19
*1406 net2
*1407 net20
*1408 net21
*1409 net22
*1410 net23
*1411 net24
*1412 net25
*1413 net26
*1414 net27
*1415 net28
*1416 net29
*1417 net3
*1418 net30
*1419 net31
*1420 net32
*1421 net33
*1422 net34
*1423 net35
*1424 net36
*1425 net37
*1426 net38
*1427 net39
*1428 net4
*1429 net40
*1430 net41
*1431 net42
*1432 net43
*1433 net44
*1434 net45
*1435 net46
*1436 net47
*1437 net48
*1438 net49
*1439 net5
*1440 net50
*1441 net51
*1442 net52
*1443 net53
*1444 net54
*1445 net55
*1446 net56
*1447 net57
*1448 net58
*1449 net59
*1450 net6
*1451 net60
*1452 net61
*1453 net62
*1454 net63
*1455 net64
*1456 net65
*1457 net66
*1458 net67
*1459 net68
*1460 net7
*1461 net78
*1462 net79
*1463 net8
*1464 net80
*1465 net81
*1466 net82
*1467 net83
*1468 net84
*1469 net9
*1470 seg1\._00_
*1471 seg1\._01_
*1472 seg1\._02_
*1473 seg1\._03_
*1474 seg1\._04_
*1475 seg1\._05_
*1476 seg1\._06_
*1477 seg1\._07_
*1478 seg1\._08_
*1479 seg1\._09_
*1480 seg1\._10_
*1481 seg1\._11_
*1482 seg1\._12_
*1483 seg1\._13_
*1484 seg1\._14_
*1485 seg1\._15_
*1486 seg1\._16_
*1487 seg1\._17_
*1488 seg1\._18_
*1489 seg1\._19_
*1490 seg1\._20_
*1491 seg1\._21_
*1492 seg1\._22_
*1493 seg1\._23_
*1494 seg1\._24_
*1495 seg1\._25_
*1496 seg1\.o_segments\[0\]
*1497 seg1\.o_segments\[1\]
*1498 seg1\.o_segments\[2\]
*1499 seg1\.o_segments\[3\]
*1500 seg1\.o_segments\[4\]
*1501 seg1\.o_segments\[5\]
*1502 seg1\.o_segments\[6\]
*1503 temp1\.dac\._0_
*1504 temp1\.dac\._1_
*1505 temp1\.dac\.i_data\[0\]
*1506 temp1\.dac\.i_data\[1\]
*1507 temp1\.dac\.i_data\[2\]
*1508 temp1\.dac\.i_data\[3\]
*1509 temp1\.dac\.i_data\[4\]
*1510 temp1\.dac\.i_data\[5\]
*1511 temp1\.dac\.i_enable
*1512 temp1\.dac\.parallel_cells\[0\]\.vdac_batch\._0_
*1513 temp1\.dac\.parallel_cells\[0\]\.vdac_batch\._1_
*1514 temp1\.dac\.parallel_cells\[0\]\.vdac_batch\._2_
*1515 temp1\.dac\.parallel_cells\[0\]\.vdac_batch\.en_pupd
*1516 temp1\.dac\.parallel_cells\[0\]\.vdac_batch\.en_vref
*1517 temp1\.dac\.parallel_cells\[0\]\.vdac_batch\.npu_pd
*1518 temp1\.dac\.parallel_cells\[0\]\.vdac_batch\.vout_notouch_
*1519 temp1\.dac\.parallel_cells\[1\]\.vdac_batch\._0_
*1520 temp1\.dac\.parallel_cells\[1\]\.vdac_batch\._1_
*1521 temp1\.dac\.parallel_cells\[1\]\.vdac_batch\._2_
*1522 temp1\.dac\.parallel_cells\[1\]\.vdac_batch\.en_pupd
*1523 temp1\.dac\.parallel_cells\[1\]\.vdac_batch\.en_vref
*1524 temp1\.dac\.parallel_cells\[1\]\.vdac_batch\.npu_pd
*1525 temp1\.dac\.parallel_cells\[2\]\.vdac_batch\._0_
*1526 temp1\.dac\.parallel_cells\[2\]\.vdac_batch\._1_
*1527 temp1\.dac\.parallel_cells\[2\]\.vdac_batch\._2_
*1528 temp1\.dac\.parallel_cells\[2\]\.vdac_batch\.en_pupd
*1529 temp1\.dac\.parallel_cells\[2\]\.vdac_batch\.en_vref
*1530 temp1\.dac\.parallel_cells\[2\]\.vdac_batch\.npu_pd
*1531 temp1\.dac\.parallel_cells\[3\]\.vdac_batch\._0_
*1532 temp1\.dac\.parallel_cells\[3\]\.vdac_batch\._1_
*1533 temp1\.dac\.parallel_cells\[3\]\.vdac_batch\._2_
*1534 temp1\.dac\.parallel_cells\[3\]\.vdac_batch\.en_pupd
*1535 temp1\.dac\.parallel_cells\[3\]\.vdac_batch\.en_vref
*1536 temp1\.dac\.parallel_cells\[3\]\.vdac_batch\.npu_pd
*1537 temp1\.dac\.parallel_cells\[4\]\.vdac_batch\._0_
*1538 temp1\.dac\.parallel_cells\[4\]\.vdac_batch\._1_
*1539 temp1\.dac\.parallel_cells\[4\]\.vdac_batch\._2_
*1540 temp1\.dac\.parallel_cells\[4\]\.vdac_batch\.en_pupd
*1541 temp1\.dac\.parallel_cells\[4\]\.vdac_batch\.en_vref
*1542 temp1\.dac\.parallel_cells\[4\]\.vdac_batch\.npu_pd
*1543 temp1\.dac\.vdac_single\._0_
*1544 temp1\.dac\.vdac_single\._1_
*1545 temp1\.dac\.vdac_single\._2_
*1546 temp1\.dac\.vdac_single\.en_pupd
*1547 temp1\.dac\.vdac_single\.en_vref
*1548 temp1\.dac\.vdac_single\.npu_pd
*1549 temp1\.dcdel_capnode_notouch_
*1550 temp1\.i_precharge_n
*1551 temp_delay_last
*1552 ANTENNA__0979__I
*1553 ANTENNA__0980__I
*1554 ANTENNA__0985__A1
*1555 ANTENNA__0985__A2
*1556 ANTENNA__0985__A3
*1557 ANTENNA__0986__A1
*1558 ANTENNA__0987__A1
*1559 ANTENNA__0987__A2
*1560 ANTENNA__0991__A1
*1561 ANTENNA__0995__A1
*1562 ANTENNA__0996__I
*1563 ANTENNA__0998__A1
*1564 ANTENNA__0999__A1
*1565 ANTENNA__1000__A1
*1566 ANTENNA__1001__A1
*1567 ANTENNA__1002__A1
*1568 ANTENNA__1003__A1
*1569 ANTENNA__1004__A3
*1570 ANTENNA__1008__I
*1571 ANTENNA__1009__A1
*1572 ANTENNA__1012__I
*1573 ANTENNA__1016__A1
*1574 ANTENNA__1016__A2
*1575 ANTENNA__1016__A3
*1576 ANTENNA__1019__A1
*1577 ANTENNA__1019__A2
*1578 ANTENNA__1021__I
*1579 ANTENNA__1022__I
*1580 ANTENNA__1023__A1
*1581 ANTENNA__1023__A2
*1582 ANTENNA__1023__A3
*1583 ANTENNA__1023__A4
*1584 ANTENNA__1024__A1
*1585 ANTENNA__1024__A2
*1586 ANTENNA__1025__I
*1587 ANTENNA__1027__A1
*1588 ANTENNA__1027__A2
*1589 ANTENNA__1027__A3
*1590 ANTENNA__1027__A4
*1591 ANTENNA__1028__A1
*1592 ANTENNA__1028__A2
*1593 ANTENNA__1029__B1
*1594 ANTENNA__1029__B2
*1595 ANTENNA__1030__A1
*1596 ANTENNA__1030__A2
*1597 ANTENNA__1031__I
*1598 ANTENNA__1032__A1
*1599 ANTENNA__1032__A2
*1600 ANTENNA__1032__A3
*1601 ANTENNA__1032__A4
*1602 ANTENNA__1033__A1
*1603 ANTENNA__1034__B1
*1604 ANTENNA__1035__A1
*1605 ANTENNA__1035__A2
*1606 ANTENNA__1036__A1
*1607 ANTENNA__1036__A2
*1608 ANTENNA__1036__A3
*1609 ANTENNA__1037__A1
*1610 ANTENNA__1037__A2
*1611 ANTENNA__1039__A2
*1612 ANTENNA__1039__B1
*1613 ANTENNA__1040__A1
*1614 ANTENNA__1040__A2
*1615 ANTENNA__1040__A3
*1616 ANTENNA__1040__A4
*1617 ANTENNA__1041__A1
*1618 ANTENNA__1041__A3
*1619 ANTENNA__1042__A1
*1620 ANTENNA__1042__A3
*1621 ANTENNA__1044__A3
*1622 ANTENNA__1045__A1
*1623 ANTENNA__1046__A1
*1624 ANTENNA__1046__A2
*1625 ANTENNA__1046__A3
*1626 ANTENNA__1047__A2
*1627 ANTENNA__1047__B1
*1628 ANTENNA__1049__A2
*1629 ANTENNA__1049__A3
*1630 ANTENNA__1050__A2
*1631 ANTENNA__1050__B1
*1632 ANTENNA__1051__A1
*1633 ANTENNA__1051__A2
*1634 ANTENNA__1051__A3
*1635 ANTENNA__1052__A1
*1636 ANTENNA__1053__B1
*1637 ANTENNA__1054__A2
*1638 ANTENNA__1054__A3
*1639 ANTENNA__1055__A1
*1640 ANTENNA__1055__A2
*1641 ANTENNA__1056__A1
*1642 ANTENNA__1056__A2
*1643 ANTENNA__1056__A3
*1644 ANTENNA__1057__A1
*1645 ANTENNA__1057__A2
*1646 ANTENNA__1057__B1
*1647 ANTENNA__1058__A2
*1648 ANTENNA__1058__A3
*1649 ANTENNA__1059__A1
*1650 ANTENNA__1059__A2
*1651 ANTENNA__1060__A2
*1652 ANTENNA__1060__B1
*1653 ANTENNA__1061__A1
*1654 ANTENNA__1063__A1
*1655 ANTENNA__1063__A2
*1656 ANTENNA__1064__A1
*1657 ANTENNA__1064__A2
*1658 ANTENNA__1064__A3
*1659 ANTENNA__1064__A4
*1660 ANTENNA__1066__A1
*1661 ANTENNA__1068__A1
*1662 ANTENNA__1068__A2
*1663 ANTENNA__1068__A3
*1664 ANTENNA__1068__A4
*1665 ANTENNA__1070__A1
*1666 ANTENNA__1070__A3
*1667 ANTENNA__1072__A1
*1668 ANTENNA__1072__A2
*1669 ANTENNA__1073__A1
*1670 ANTENNA__1073__A2
*1671 ANTENNA__1073__A3
*1672 ANTENNA__1074__A1
*1673 ANTENNA__1074__A2
*1674 ANTENNA__1074__A3
*1675 ANTENNA__1075__A1
*1676 ANTENNA__1075__A2
*1677 ANTENNA__1075__A4
*1678 ANTENNA__1078__A2
*1679 ANTENNA__1078__A3
*1680 ANTENNA__1079__A2
*1681 ANTENNA__1079__B
*1682 ANTENNA__1080__A1
*1683 ANTENNA__1081__A1
*1684 ANTENNA__1081__A2
*1685 ANTENNA__1081__A3
*1686 ANTENNA__1082__A1
*1687 ANTENNA__1082__A2
*1688 ANTENNA__1082__B1
*1689 ANTENNA__1083__A1
*1690 ANTENNA__1083__A3
*1691 ANTENNA__1084__A1
*1692 ANTENNA__1084__A2
*1693 ANTENNA__1084__A3
*1694 ANTENNA__1085__A2
*1695 ANTENNA__1085__B1
*1696 ANTENNA__1086__A2
*1697 ANTENNA__1086__A3
*1698 ANTENNA__1087__A1
*1699 ANTENNA__1088__A2
*1700 ANTENNA__1088__B1
*1701 ANTENNA__1090__A2
*1702 ANTENNA__1090__A4
*1703 ANTENNA__1091__A2
*1704 ANTENNA__1091__B1
*1705 ANTENNA__1092__A1
*1706 ANTENNA__1093__A1
*1707 ANTENNA__1093__A2
*1708 ANTENNA__1095__B1
*1709 ANTENNA__1095__B2
*1710 ANTENNA__1096__B1
*1711 ANTENNA__1097__A2
*1712 ANTENNA__1097__B1
*1713 ANTENNA__1098__A1
*1714 ANTENNA__1098__A3
*1715 ANTENNA__1099__A1
*1716 ANTENNA__1099__A3
*1717 ANTENNA__1101__A3
*1718 ANTENNA__1102__A2
*1719 ANTENNA__1102__B1
*1720 ANTENNA__1103__A2
*1721 ANTENNA__1103__B1
*1722 ANTENNA__1104__B1
*1723 ANTENNA__1105__A2
*1724 ANTENNA__1105__B1
*1725 ANTENNA__1106__A2
*1726 ANTENNA__1106__B1
*1727 ANTENNA__1107__A1
*1728 ANTENNA__1108__A1
*1729 ANTENNA__1108__A2
*1730 ANTENNA__1108__A3
*1731 ANTENNA__1111__A1
*1732 ANTENNA__1114__A1
*1733 ANTENNA__1114__A3
*1734 ANTENNA__1116__A1
*1735 ANTENNA__1116__A2
*1736 ANTENNA__1116__A4
*1737 ANTENNA__1119__A2
*1738 ANTENNA__1119__B
*1739 ANTENNA__1120__A2
*1740 ANTENNA__1120__B1
*1741 ANTENNA__1121__A2
*1742 ANTENNA__1121__B1
*1743 ANTENNA__1122__A2
*1744 ANTENNA__1122__B1
*1745 ANTENNA__1124__A2
*1746 ANTENNA__1124__A4
*1747 ANTENNA__1125__A2
*1748 ANTENNA__1125__B1
*1749 ANTENNA__1126__A1
*1750 ANTENNA__1127__A1
*1751 ANTENNA__1127__A2
*1752 ANTENNA__1129__A1
*1753 ANTENNA__1129__B1
*1754 ANTENNA__1129__B2
*1755 ANTENNA__1130__B1
*1756 ANTENNA__1131__A2
*1757 ANTENNA__1131__B1
*1758 ANTENNA__1132__A1
*1759 ANTENNA__1132__A3
*1760 ANTENNA__1133__A1
*1761 ANTENNA__1133__A2
*1762 ANTENNA__1133__A3
*1763 ANTENNA__1135__A3
*1764 ANTENNA__1135__A4
*1765 ANTENNA__1136__A2
*1766 ANTENNA__1136__B1
*1767 ANTENNA__1137__A2
*1768 ANTENNA__1137__B1
*1769 ANTENNA__1138__B1
*1770 ANTENNA__1139__A2
*1771 ANTENNA__1139__B1
*1772 ANTENNA__1140__A2
*1773 ANTENNA__1140__B1
*1774 ANTENNA__1141__A2
*1775 ANTENNA__1144__A1
*1776 ANTENNA__1147__A1
*1777 ANTENNA__1147__A3
*1778 ANTENNA__1149__A1
*1779 ANTENNA__1149__A2
*1780 ANTENNA__1149__A4
*1781 ANTENNA__1152__A2
*1782 ANTENNA__1152__B
*1783 ANTENNA__1153__A1
*1784 ANTENNA__1153__A2
*1785 ANTENNA__1153__B1
*1786 ANTENNA__1154__A2
*1787 ANTENNA__1154__B1
*1788 ANTENNA__1155__A2
*1789 ANTENNA__1155__B1
*1790 ANTENNA__1157__A2
*1791 ANTENNA__1157__A4
*1792 ANTENNA__1158__A2
*1793 ANTENNA__1159__A1
*1794 ANTENNA__1160__A1
*1795 ANTENNA__1160__A2
*1796 ANTENNA__1162__A1
*1797 ANTENNA__1162__B1
*1798 ANTENNA__1162__B2
*1799 ANTENNA__1163__B1