*SPEF "ieee 1481-1999"
*DESIGN "temp_sensor"
*DATE "11:11:11 Fri 11 11, 1111"
*VENDOR "OpenRCX"
*PROGRAM "Parallel Extraction"
*VERSION "1.0"
*DESIGN_FLOW "NAME_SCOPE LOCAL" "PIN_CAP NONE"
*DIVIDER /
*DELIMITER :
*BUS_DELIMITER []
*T_UNIT 1 NS
*C_UNIT 1 PF
*R_UNIT 1 OHM
*L_UNIT 1 HENRY

*NAME_MAP
*3 io_in[0]
*4 io_in[1]
*5 io_in[2]
*6 io_in[3]
*7 io_in[4]
*8 io_in[5]
*9 io_in[6]
*10 io_in[7]
*11 io_out[0]
*12 io_out[1]
*13 io_out[2]
*14 io_out[3]
*15 io_out[4]
*16 io_out[5]
*17 io_out[6]
*18 io_out[7]
*19 _0000_
*20 _0001_
*21 _0002_
*22 _0003_
*23 _0004_
*24 _0005_
*25 _0006_
*26 _0007_
*27 _0008_
*28 _0009_
*29 _0010_
*30 _0011_
*31 _0012_
*32 _0013_
*33 _0014_
*34 _0015_
*35 _0016_
*36 _0017_
*37 _0018_
*38 _0019_
*39 _0020_
*40 _0021_
*41 _0022_
*42 _0023_
*43 _0024_
*44 _0025_
*45 _0026_
*46 _0027_
*47 _0028_
*48 _0029_
*49 _0030_
*50 _0031_
*51 _0032_
*52 _0033_
*53 _0034_
*54 _0035_
*55 _0036_
*56 _0037_
*57 _0038_
*58 _0039_
*59 _0040_
*60 _0041_
*61 _0042_
*62 _0043_
*63 _0044_
*64 _0045_
*65 _0046_
*66 _0047_
*67 _0048_
*68 _0049_
*69 _0050_
*70 _0051_
*71 _0052_
*72 _0053_
*73 _0054_
*74 _0055_
*75 _0056_
*76 _0057_
*77 _0058_
*78 _0059_
*79 _0060_
*80 _0061_
*81 _0062_
*82 _0063_
*83 _0064_
*84 _0065_
*85 _0066_
*86 _0067_
*87 _0068_
*88 _0069_
*89 _0070_
*90 _0071_
*91 _0072_
*92 _0073_
*93 _0074_
*94 _0075_
*95 _0076_
*96 _0077_
*97 _0078_
*98 _0079_
*99 _0080_
*100 _0081_
*101 _0082_
*102 _0083_
*103 _0084_
*104 _0085_
*105 _0086_
*106 _0087_
*107 _0088_
*108 _0089_
*109 _0090_
*110 _0091_
*111 _0092_
*112 _0093_
*113 _0094_
*114 _0095_
*115 _0096_
*116 _0097_
*117 _0098_
*118 _0099_
*119 _0100_
*120 _0101_
*121 _0102_
*122 _0103_
*123 _0104_
*124 _0105_
*125 _0106_
*126 _0107_
*127 _0108_
*128 _0109_
*129 _0110_
*130 _0111_
*131 _0112_
*132 _0113_
*133 _0114_
*134 _0115_
*135 _0116_
*136 _0117_
*137 _0118_
*138 _0119_
*139 _0120_
*140 _0121_
*141 _0122_
*142 _0123_
*143 _0124_
*144 _0125_
*145 _0126_
*146 _0127_
*147 _0128_
*148 _0129_
*149 _0130_
*150 _0131_
*151 _0132_
*152 _0133_
*153 _0134_
*154 _0135_
*155 _0136_
*156 _0137_
*157 _0138_
*158 _0139_
*159 _0140_
*160 _0141_
*161 _0142_
*162 _0143_
*163 _0144_
*164 _0145_
*165 _0146_
*166 _0147_
*167 _0148_
*168 _0149_
*169 _0150_
*170 _0151_
*171 _0152_
*172 _0153_
*173 _0154_
*174 _0155_
*175 _0156_
*176 _0157_
*177 _0158_
*178 _0159_
*179 _0160_
*180 _0161_
*181 _0162_
*182 _0163_
*183 _0164_
*184 _0165_
*185 _0166_
*186 _0167_
*187 _0168_
*188 _0169_
*189 _0170_
*190 _0171_
*191 _0172_
*192 _0173_
*193 _0174_
*194 _0175_
*195 _0176_
*196 _0177_
*197 _0178_
*198 _0179_
*199 _0180_
*200 _0181_
*201 _0182_
*202 _0183_
*203 _0184_
*204 _0185_
*205 _0186_
*206 _0187_
*207 _0188_
*208 _0189_
*209 _0190_
*210 _0191_
*211 _0192_
*212 _0193_
*213 _0194_
*214 _0195_
*215 _0196_
*216 _0197_
*217 _0198_
*218 _0199_
*219 _0200_
*220 _0201_
*221 _0202_
*222 _0203_
*223 _0204_
*224 _0205_
*225 _0206_
*226 _0207_
*227 _0208_
*228 _0209_
*229 _0210_
*230 _0211_
*231 _0212_
*232 _0213_
*233 _0214_
*234 _0215_
*235 _0216_
*236 _0217_
*237 _0218_
*238 _0219_
*239 _0220_
*240 _0221_
*241 _0222_
*242 _0223_
*243 _0224_
*244 _0225_
*245 _0226_
*246 _0227_
*247 _0228_
*248 _0229_
*249 _0230_
*250 _0231_
*251 _0232_
*252 _0233_
*253 _0234_
*254 _0235_
*255 _0236_
*256 _0237_
*257 _0238_
*258 _0239_
*259 _0240_
*260 _0241_
*261 _0242_
*262 _0243_
*263 _0244_
*264 _0245_
*265 _0246_
*266 _0247_
*267 _0248_
*268 _0249_
*269 _0250_
*270 _0251_
*271 _0252_
*272 _0253_
*273 _0254_
*274 _0255_
*275 _0256_
*276 _0257_
*277 _0258_
*278 _0259_
*279 _0260_
*280 _0261_
*281 _0262_
*282 _0263_
*283 _0264_
*284 _0265_
*285 _0266_
*286 _0267_
*287 _0268_
*288 _0269_
*289 _0270_
*290 _0271_
*291 _0272_
*292 _0273_
*293 _0274_
*294 _0275_
*295 _0276_
*296 _0277_
*297 _0278_
*298 _0279_
*299 _0280_
*300 _0281_
*301 _0282_
*302 _0283_
*303 _0284_
*304 _0285_
*305 _0286_
*306 _0287_
*307 _0288_
*308 _0289_
*309 _0290_
*310 _0291_
*311 _0292_
*312 _0293_
*313 _0294_
*314 _0295_
*315 _0296_
*316 _0297_
*317 _0298_
*318 _0299_
*319 _0300_
*320 _0301_
*321 _0302_
*322 _0303_
*323 _0304_
*324 _0305_
*325 _0306_
*326 _0307_
*327 _0308_
*328 _0309_
*329 _0310_
*330 _0311_
*331 _0312_
*332 _0313_
*333 _0314_
*334 _0315_
*335 _0316_
*336 _0317_
*337 _0318_
*338 _0319_
*339 _0320_
*340 _0321_
*341 _0322_
*342 _0323_
*343 _0324_
*344 _0325_
*345 _0326_
*346 _0327_
*347 _0328_
*348 _0329_
*349 _0330_
*350 _0331_
*351 _0332_
*352 _0333_
*353 _0334_
*354 _0335_
*355 _0336_
*356 _0337_
*357 _0338_
*358 _0339_
*359 _0340_
*360 _0341_
*361 _0342_
*362 _0343_
*363 _0344_
*364 _0345_
*365 _0346_
*366 _0347_
*367 _0348_
*368 _0349_
*369 _0350_
*370 _0351_
*371 _0352_
*372 _0353_
*373 _0354_
*374 _0355_
*375 _0356_
*376 _0357_
*377 _0358_
*378 _0359_
*379 _0360_
*380 _0361_
*381 _0362_
*382 _0363_
*383 _0364_
*384 _0365_
*385 _0366_
*386 _0367_
*387 _0368_
*388 _0369_
*389 _0370_
*390 _0371_
*391 _0372_
*392 _0373_
*393 _0374_
*394 _0375_
*395 _0376_
*396 _0377_
*397 _0378_
*398 _0379_
*399 _0380_
*400 _0381_
*401 _0382_
*402 _0383_
*403 _0384_
*404 _0385_
*405 _0386_
*406 _0387_
*407 _0388_
*408 _0389_
*409 _0390_
*410 _0391_
*411 _0392_
*412 _0393_
*413 _0394_
*414 _0395_
*415 _0396_
*416 _0397_
*417 _0398_
*418 _0399_
*419 _0400_
*420 _0401_
*421 _0402_
*422 _0403_
*423 _0404_
*424 _0405_
*425 _0406_
*426 _0407_
*427 _0408_
*428 _0409_
*429 _0410_
*430 _0411_
*431 _0412_
*432 _0413_
*433 _0414_
*434 _0415_
*435 _0416_
*436 _0417_
*437 _0418_
*438 _0419_
*439 _0420_
*440 _0421_
*441 _0422_
*442 _0423_
*443 _0424_
*444 _0425_
*445 _0426_
*446 _0427_
*447 _0428_
*448 _0429_
*449 _0430_
*450 _0431_
*451 _0432_
*452 _0433_
*453 _0434_
*454 _0435_
*455 _0436_
*456 _0437_
*457 _0438_
*458 _0439_
*459 _0440_
*460 _0441_
*461 _0442_
*462 _0443_
*463 _0444_
*464 _0445_
*465 _0446_
*466 _0447_
*467 _0448_
*468 _0449_
*469 _0450_
*470 _0451_
*471 _0452_
*472 _0453_
*473 _0454_
*474 _0455_
*475 _0456_
*476 _0457_
*477 _0458_
*478 _0459_
*479 _0460_
*480 _0461_
*481 _0462_
*482 _0463_
*483 _0464_
*484 _0465_
*485 _0466_
*486 _0467_
*487 _0468_
*488 _0469_
*489 _0470_
*490 _0471_
*491 _0472_
*492 _0473_
*493 _0474_
*494 _0475_
*495 _0476_
*496 _0477_
*497 _0478_
*498 _0479_
*499 _0480_
*500 _0481_
*501 _0482_
*502 _0483_
*503 _0484_
*504 _0485_
*505 _0486_
*506 _0487_
*507 _0488_
*508 _0489_
*509 _0490_
*510 _0491_
*511 _0492_
*512 _0493_
*513 _0494_
*514 _0495_
*515 _0496_
*516 _0497_
*517 _0498_
*518 _0499_
*519 _0500_
*520 _0501_
*521 _0502_
*522 _0503_
*523 _0504_
*524 _0505_
*525 _0506_
*526 _0507_
*527 _0508_
*528 _0509_
*529 _0510_
*530 _0511_
*531 _0512_
*532 _0513_
*533 _0514_
*534 _0515_
*535 _0516_
*536 _0517_
*537 _0518_
*538 _0519_
*539 _0520_
*540 _0521_
*541 _0522_
*542 _0523_
*543 _0524_
*544 _0525_
*545 _0526_
*546 _0527_
*547 _0528_
*548 _0529_
*549 _0530_
*550 _0531_
*551 _0532_
*552 _0533_
*553 _0534_
*554 _0535_
*555 _0536_
*556 _0537_
*557 _0538_
*558 _0539_
*559 _0540_
*560 _0541_
*561 _0542_
*562 _0543_
*563 _0544_
*564 _0545_
*565 _0546_
*566 _0547_
*567 _0548_
*568 _0549_
*569 _0550_
*570 _0551_
*571 _0552_
*572 _0553_
*573 _0554_
*574 _0555_
*575 _0556_
*576 _0557_
*577 _0558_
*578 _0559_
*579 _0560_
*580 _0561_
*581 _0562_
*582 _0563_
*583 _0564_
*584 _0565_
*585 _0566_
*586 _0567_
*587 _0568_
*588 _0569_
*589 _0570_
*590 _0571_
*591 _0572_
*592 _0573_
*593 _0574_
*594 _0575_
*595 _0576_
*596 _0577_
*597 _0578_
*598 _0579_
*599 _0580_
*600 _0581_
*601 _0582_
*602 _0583_
*603 _0584_
*604 _0585_
*605 _0586_
*606 _0587_
*607 _0588_
*608 _0589_
*609 _0590_
*610 _0591_
*611 _0592_
*612 _0593_
*613 _0594_
*614 _0595_
*615 _0596_
*616 _0597_
*617 _0598_
*618 _0599_
*619 _0600_
*620 _0601_
*621 _0602_
*622 _0603_
*623 _0604_
*624 _0605_
*625 _0606_
*626 _0607_
*627 _0608_
*628 _0609_
*629 _0610_
*630 _0611_
*631 _0612_
*632 _0613_
*633 _0614_
*634 _0615_
*635 _0616_
*636 _0617_
*637 _0618_
*638 _0619_
*639 _0620_
*640 _0621_
*641 _0622_
*642 _0623_
*643 _0624_
*644 _0625_
*645 _0626_
*646 _0627_
*647 _0628_
*648 _0629_
*649 _0630_
*650 _0631_
*651 _0632_
*652 _0633_
*653 _0634_
*654 _0635_
*655 _0636_
*656 _0637_
*657 _0638_
*658 _0639_
*659 _0640_
*660 _0641_
*661 _0642_
*662 _0643_
*663 _0644_
*664 _0645_
*665 _0646_
*666 _0647_
*667 _0648_
*668 _0649_
*669 _0650_
*670 _0651_
*671 _0652_
*672 _0653_
*673 _0654_
*674 _0655_
*675 _0656_
*676 _0657_
*677 _0658_
*678 _0659_
*679 _0660_
*680 _0661_
*681 _0662_
*682 _0663_
*683 _0664_
*684 _0665_
*685 _0666_
*686 _0667_
*687 _0668_
*688 _0669_
*689 _0670_
*690 _0671_
*691 _0672_
*692 _0673_
*693 _0674_
*694 _0675_
*695 _0676_
*696 _0677_
*697 _0678_
*698 _0679_
*699 _0680_
*700 _0681_
*701 _0682_
*702 _0683_
*703 _0684_
*704 _0685_
*705 _0686_
*706 _0687_
*707 _0688_
*708 _0689_
*709 _0690_
*710 _0691_
*711 _0692_
*712 _0693_
*713 _0694_
*714 _0695_
*715 _0696_
*716 _0697_
*717 _0698_
*718 _0699_
*719 _0700_
*720 _0701_
*721 _0702_
*722 _0703_
*723 _0704_
*724 _0705_
*725 _0706_
*726 _0707_
*727 _0708_
*728 _0709_
*729 _0710_
*730 _0711_
*731 _0712_
*732 _0713_
*733 _0714_
*734 _0715_
*735 _0716_
*736 _0717_
*737 _0718_
*738 _0719_
*739 _0720_
*740 _0721_
*741 _0722_
*742 _0723_
*743 _0724_
*744 _0725_
*745 _0726_
*746 _0727_
*747 _0728_
*748 _0729_
*749 _0730_
*750 _0731_
*751 _0733_
*752 _0734_
*753 _0735_
*754 _0736_
*755 _0737_
*756 _0738_
*757 _0739_
*758 _0740_
*759 _0741_
*760 _0742_
*761 _0743_
*762 _0744_
*763 _0745_
*764 _0746_
*765 _0747_
*766 _0748_
*767 _0749_
*768 _0750_
*769 _0751_
*770 _0752_
*771 _0753_
*772 _0754_
*773 _0755_
*774 _0756_
*775 _0757_
*776 _0758_
*777 _0759_
*778 _0760_
*779 _0761_
*780 _0762_
*781 _0763_
*782 _0764_
*783 _0765_
*784 _0766_
*785 _0767_
*786 _0768_
*787 _0769_
*788 _0770_
*789 _0771_
*790 _0772_
*791 _0773_
*792 _0774_
*793 _0775_
*794 _0776_
*795 _0777_
*796 _0778_
*797 _0779_
*798 _0780_
*799 _0781_
*800 _0782_
*801 _0783_
*802 _0784_
*803 _0785_
*804 _0786_
*805 _0787_
*806 _0788_
*807 _0789_
*808 _0790_
*809 _0791_
*810 _0792_
*811 _0793_
*812 _0794_
*813 _0795_
*814 _0796_
*815 _0797_
*816 _0798_
*817 _0799_
*818 _0800_
*819 _0801_
*820 _0802_
*821 _0803_
*822 _0804_
*823 _0805_
*824 _0806_
*825 _0807_
*826 _0808_
*827 _0809_
*828 _0810_
*829 _0811_
*830 cal_lut\[100\]
*831 cal_lut\[101\]
*832 cal_lut\[102\]
*833 cal_lut\[103\]
*834 cal_lut\[104\]
*835 cal_lut\[105\]
*836 cal_lut\[106\]
*837 cal_lut\[107\]
*838 cal_lut\[108\]
*839 cal_lut\[109\]
*840 cal_lut\[10\]
*841 cal_lut\[110\]
*842 cal_lut\[111\]
*843 cal_lut\[112\]
*844 cal_lut\[113\]
*845 cal_lut\[114\]
*846 cal_lut\[115\]
*847 cal_lut\[116\]
*848 cal_lut\[117\]
*849 cal_lut\[118\]
*850 cal_lut\[119\]
*851 cal_lut\[11\]
*852 cal_lut\[120\]
*853 cal_lut\[121\]
*854 cal_lut\[122\]
*855 cal_lut\[123\]
*856 cal_lut\[124\]
*857 cal_lut\[125\]
*858 cal_lut\[126\]
*859 cal_lut\[127\]
*860 cal_lut\[128\]
*861 cal_lut\[129\]
*862 cal_lut\[12\]
*863 cal_lut\[130\]
*864 cal_lut\[131\]
*865 cal_lut\[132\]
*866 cal_lut\[133\]
*867 cal_lut\[134\]
*868 cal_lut\[135\]
*869 cal_lut\[136\]
*870 cal_lut\[137\]
*871 cal_lut\[138\]
*872 cal_lut\[139\]
*873 cal_lut\[13\]
*874 cal_lut\[140\]
*875 cal_lut\[141\]
*876 cal_lut\[142\]
*877 cal_lut\[143\]
*878 cal_lut\[144\]
*879 cal_lut\[145\]
*880 cal_lut\[146\]
*881 cal_lut\[147\]
*882 cal_lut\[148\]
*883 cal_lut\[149\]
*884 cal_lut\[14\]
*885 cal_lut\[150\]
*886 cal_lut\[151\]
*887 cal_lut\[152\]
*888 cal_lut\[153\]
*889 cal_lut\[154\]
*890 cal_lut\[155\]
*891 cal_lut\[156\]
*892 cal_lut\[157\]
*893 cal_lut\[158\]
*894 cal_lut\[159\]
*895 cal_lut\[15\]
*896 cal_lut\[160\]
*897 cal_lut\[161\]
*898 cal_lut\[162\]
*899 cal_lut\[163\]
*900 cal_lut\[164\]
*901 cal_lut\[165\]
*902 cal_lut\[166\]
*903 cal_lut\[167\]
*904 cal_lut\[168\]
*905 cal_lut\[169\]
*906 cal_lut\[16\]
*907 cal_lut\[170\]
*908 cal_lut\[171\]
*909 cal_lut\[172\]
*910 cal_lut\[173\]
*911 cal_lut\[174\]
*912 cal_lut\[175\]
*913 cal_lut\[176\]
*914 cal_lut\[177\]
*915 cal_lut\[178\]
*916 cal_lut\[179\]
*917 cal_lut\[17\]
*918 cal_lut\[180\]
*919 cal_lut\[181\]
*920 cal_lut\[182\]
*921 cal_lut\[183\]
*922 cal_lut\[184\]
*923 cal_lut\[185\]
*924 cal_lut\[186\]
*925 cal_lut\[187\]
*926 cal_lut\[188\]
*927 cal_lut\[189\]
*928 cal_lut\[18\]
*929 cal_lut\[190\]
*930 cal_lut\[191\]
*931 cal_lut\[192\]
*932 cal_lut\[19\]
*933 cal_lut\[1\]
*934 cal_lut\[20\]
*935 cal_lut\[21\]
*936 cal_lut\[22\]
*937 cal_lut\[23\]
*938 cal_lut\[24\]
*939 cal_lut\[25\]
*940 cal_lut\[26\]
*941 cal_lut\[27\]
*942 cal_lut\[28\]
*943 cal_lut\[29\]
*944 cal_lut\[2\]
*945 cal_lut\[30\]
*946 cal_lut\[31\]
*947 cal_lut\[32\]
*948 cal_lut\[33\]
*949 cal_lut\[34\]
*950 cal_lut\[35\]
*951 cal_lut\[36\]
*952 cal_lut\[37\]
*953 cal_lut\[38\]
*954 cal_lut\[39\]
*955 cal_lut\[3\]
*956 cal_lut\[40\]
*957 cal_lut\[41\]
*958 cal_lut\[42\]
*959 cal_lut\[43\]
*960 cal_lut\[44\]
*961 cal_lut\[45\]
*962 cal_lut\[46\]
*963 cal_lut\[47\]
*964 cal_lut\[48\]
*965 cal_lut\[49\]
*966 cal_lut\[4\]
*967 cal_lut\[50\]
*968 cal_lut\[51\]
*969 cal_lut\[52\]
*970 cal_lut\[53\]
*971 cal_lut\[54\]
*972 cal_lut\[55\]
*973 cal_lut\[56\]
*974 cal_lut\[57\]
*975 cal_lut\[58\]
*976 cal_lut\[59\]
*977 cal_lut\[5\]
*978 cal_lut\[60\]
*979 cal_lut\[61\]
*980 cal_lut\[62\]
*981 cal_lut\[63\]
*982 cal_lut\[64\]
*983 cal_lut\[65\]
*984 cal_lut\[66\]
*985 cal_lut\[67\]
*986 cal_lut\[68\]
*987 cal_lut\[69\]
*988 cal_lut\[6\]
*989 cal_lut\[70\]
*990 cal_lut\[71\]
*991 cal_lut\[72\]
*992 cal_lut\[73\]
*993 cal_lut\[74\]
*994 cal_lut\[75\]
*995 cal_lut\[76\]
*996 cal_lut\[77\]
*997 cal_lut\[78\]
*998 cal_lut\[79\]
*999 cal_lut\[7\]
*1000 cal_lut\[80\]
*1001 cal_lut\[81\]
*1002 cal_lut\[82\]
*1003 cal_lut\[83\]
*1004 cal_lut\[84\]
*1005 cal_lut\[85\]
*1006 cal_lut\[86\]
*1007 cal_lut\[87\]
*1008 cal_lut\[88\]
*1009 cal_lut\[89\]
*1010 cal_lut\[8\]
*1011 cal_lut\[90\]
*1012 cal_lut\[91\]
*1013 cal_lut\[92\]
*1014 cal_lut\[93\]
*1015 cal_lut\[94\]
*1016 cal_lut\[95\]
*1017 cal_lut\[96\]
*1018 cal_lut\[97\]
*1019 cal_lut\[98\]
*1020 cal_lut\[99\]
*1021 cal_lut\[9\]
*1022 clknet_0__0316_
*1023 clknet_0__0318_
*1024 clknet_0_io_in[0]
*1025 clknet_0_net23
*1026 clknet_0_temp1\.i_precharge_n
*1027 clknet_1_0__leaf__0316_
*1028 clknet_1_0__leaf__0318_
*1029 clknet_1_0__leaf_io_in[0]
*1030 clknet_1_0__leaf_net23
*1031 clknet_1_0__leaf_temp1\.i_precharge_n
*1032 clknet_1_1__leaf__0316_
*1033 clknet_1_1__leaf__0318_
*1034 clknet_1_1__leaf_io_in[0]
*1035 clknet_1_1__leaf_net23
*1036 clknet_1_1__leaf_temp1\.i_precharge_n
*1037 ctr\[0\]
*1038 ctr\[10\]
*1039 ctr\[11\]
*1040 ctr\[12\]
*1041 ctr\[1\]
*1042 ctr\[2\]
*1043 ctr\[3\]
*1044 ctr\[4\]
*1045 ctr\[5\]
*1046 ctr\[6\]
*1047 ctr\[7\]
*1048 ctr\[8\]
*1049 ctr\[9\]
*1050 dbg3\[0\]
*1051 dbg3\[1\]
*1052 dbg3\[2\]
*1053 dbg3\[3\]
*1054 dbg3\[4\]
*1055 dbg3\[5\]
*1056 dec1\._000_
*1057 dec1\._001_
*1058 dec1\._002_
*1059 dec1\._003_
*1060 dec1\._004_
*1061 dec1\._005_
*1062 dec1\._006_
*1063 dec1\._007_
*1064 dec1\._008_
*1065 dec1\._009_
*1066 dec1\._010_
*1067 dec1\._011_
*1068 dec1\._012_
*1069 dec1\._013_
*1070 dec1\._014_
*1071 dec1\._015_
*1072 dec1\._016_
*1073 dec1\._017_
*1074 dec1\._018_
*1075 dec1\._019_
*1076 dec1\._020_
*1077 dec1\._021_
*1078 dec1\._022_
*1079 dec1\._023_
*1080 dec1\._024_
*1081 dec1\._025_
*1082 dec1\._026_
*1083 dec1\._027_
*1084 dec1\._028_
*1085 dec1\._029_
*1086 dec1\._030_
*1087 dec1\._031_
*1088 dec1\._032_
*1089 dec1\._033_
*1090 dec1\._034_
*1091 dec1\._035_
*1092 dec1\._036_
*1093 dec1\._037_
*1094 dec1\._038_
*1095 dec1\._039_
*1096 dec1\._040_
*1097 dec1\._041_
*1098 dec1\._042_
*1099 dec1\._043_
*1100 dec1\._044_
*1101 dec1\._045_
*1102 dec1\._046_
*1103 dec1\._047_
*1104 dec1\._048_
*1105 dec1\._049_
*1106 dec1\._050_
*1107 dec1\._051_
*1108 dec1\._052_
*1109 dec1\._053_
*1110 dec1\._054_
*1111 dec1\._055_
*1112 dec1\._056_
*1113 dec1\._057_
*1114 dec1\._058_
*1115 dec1\._059_
*1116 dec1\.i_bin\[0\]
*1117 dec1\.i_bin\[1\]
*1118 dec1\.i_bin\[2\]
*1119 dec1\.i_bin\[3\]
*1120 dec1\.i_bin\[4\]
*1121 dec1\.i_bin\[5\]
*1122 dec1\.i_bin\[6\]
*1123 dec1\.i_ones
*1124 dec1\.i_tens
*1125 dec1\.o_dec\[0\]
*1126 dec1\.o_dec\[1\]
*1127 dec1\.o_dec\[2\]
*1128 dec1\.o_dec\[3\]
*1129 net1
*1130 net10
*1131 net11
*1132 net12
*1133 net13
*1134 net14
*1135 net15
*1136 net16
*1137 net17
*1138 net18
*1139 net19
*1140 net2
*1141 net20
*1142 net21
*1143 net22
*1144 net23
*1145 net24
*1146 net25
*1147 net3
*1148 net4
*1149 net5
*1150 net6
*1151 net7
*1152 net8
*1153 net9
*1154 seg1\._00_
*1155 seg1\._01_
*1156 seg1\._02_
*1157 seg1\._03_
*1158 seg1\._04_
*1159 seg1\._05_
*1160 seg1\._06_
*1161 seg1\._07_
*1162 seg1\._08_
*1163 seg1\._09_
*1164 seg1\._10_
*1165 seg1\._11_
*1166 seg1\._12_
*1167 seg1\._13_
*1168 seg1\._14_
*1169 seg1\._15_
*1170 seg1\._16_
*1171 seg1\._17_
*1172 seg1\._18_
*1173 seg1\._19_
*1174 seg1\._20_
*1175 seg1\._21_
*1176 seg1\._22_
*1177 seg1\._23_
*1178 seg1\._24_
*1179 seg1\._25_
*1180 seg1\.o_segments\[0\]
*1181 seg1\.o_segments\[1\]
*1182 seg1\.o_segments\[2\]
*1183 seg1\.o_segments\[3\]
*1184 seg1\.o_segments\[4\]
*1185 seg1\.o_segments\[5\]
*1186 seg1\.o_segments\[6\]
*1187 temp1\.dac\._0_
*1188 temp1\.dac\._1_
*1189 temp1\.dac\.i_data\[0\]
*1190 temp1\.dac\.i_data\[1\]
*1191 temp1\.dac\.i_data\[2\]
*1192 temp1\.dac\.i_data\[3\]
*1193 temp1\.dac\.i_data\[4\]
*1194 temp1\.dac\.i_data\[5\]
*1195 temp1\.dac\.i_enable
*1196 temp1\.dac\.parallel_cells\[0\]\.vdac_batch\._0_
*1197 temp1\.dac\.parallel_cells\[0\]\.vdac_batch\._1_
*1198 temp1\.dac\.parallel_cells\[0\]\.vdac_batch\._2_
*1199 temp1\.dac\.parallel_cells\[0\]\.vdac_batch\.en_pupd
*1200 temp1\.dac\.parallel_cells\[0\]\.vdac_batch\.en_vref
*1201 temp1\.dac\.parallel_cells\[0\]\.vdac_batch\.npu_pd
*1202 temp1\.dac\.parallel_cells\[0\]\.vdac_batch\.vout_notouch_
*1203 temp1\.dac\.parallel_cells\[1\]\.vdac_batch\._0_
*1204 temp1\.dac\.parallel_cells\[1\]\.vdac_batch\._1_
*1205 temp1\.dac\.parallel_cells\[1\]\.vdac_batch\._2_
*1206 temp1\.dac\.parallel_cells\[1\]\.vdac_batch\.en_pupd
*1207 temp1\.dac\.parallel_cells\[1\]\.vdac_batch\.en_vref
*1208 temp1\.dac\.parallel_cells\[1\]\.vdac_batch\.npu_pd
*1209 temp1\.dac\.parallel_cells\[2\]\.vdac_batch\._0_
*1210 temp1\.dac\.parallel_cells\[2\]\.vdac_batch\._1_
*1211 temp1\.dac\.parallel_cells\[2\]\.vdac_batch\._2_
*1212 temp1\.dac\.parallel_cells\[2\]\.vdac_batch\.en_pupd
*1213 temp1\.dac\.parallel_cells\[2\]\.vdac_batch\.en_vref
*1214 temp1\.dac\.parallel_cells\[2\]\.vdac_batch\.npu_pd
*1215 temp1\.dac\.parallel_cells\[3\]\.vdac_batch\._0_
*1216 temp1\.dac\.parallel_cells\[3\]\.vdac_batch\._1_
*1217 temp1\.dac\.parallel_cells\[3\]\.vdac_batch\._2_
*1218 temp1\.dac\.parallel_cells\[3\]\.vdac_batch\.en_pupd
*1219 temp1\.dac\.parallel_cells\[3\]\.vdac_batch\.en_vref
*1220 temp1\.dac\.parallel_cells\[3\]\.vdac_batch\.npu_pd
*1221 temp1\.dac\.parallel_cells\[4\]\.vdac_batch\._0_
*1222 temp1\.dac\.parallel_cells\[4\]\.vdac_batch\._1_
*1223 temp1\.dac\.parallel_cells\[4\]\.vdac_batch\._2_
*1224 temp1\.dac\.parallel_cells\[4\]\.vdac_batch\.en_pupd
*1225 temp1\.dac\.parallel_cells\[4\]\.vdac_batch\.en_vref
*1226 temp1\.dac\.parallel_cells\[4\]\.vdac_batch\.npu_pd
*1227 temp1\.dac\.vdac_single\._0_
*1228 temp1\.dac\.vdac_single\._1_
*1229 temp1\.dac\.vdac_single\._2_
*1230 temp1\.dac\.vdac_single\.en_pupd
*1231 temp1\.dac\.vdac_single\.en_vref
*1232 temp1\.dac\.vdac_single\.npu_pd
*1233 temp1\.dcdel_capnode_notouch_
*1234 temp1\.i_precharge_n
*1235 temp_delay_last
*1236 ANTENNA__0814__I
*1237 ANTENNA__0817__A1
*1238 ANTENNA__0818__A2
*1239 ANTENNA__0819__A1
*1240 ANTENNA__0820__A1
*1241 ANTENNA__0822__A3
*1242 ANTENNA__0827__I
*1243 ANTENNA__0829__A1
*1244 ANTENNA__0829__A2
*1245 ANTENNA__0831__I
*1246 ANTENNA__0832__I
*1247 ANTENNA__0836__I
*1248 ANTENNA__0838__I
*1249 ANTENNA__0839__A1
*1250 ANTENNA__0839__A4
*1251 ANTENNA__0840__I
*1252 ANTENNA__0841__A1
*1253 ANTENNA__0841__A2
*1254 ANTENNA__0842__A1
*1255 ANTENNA__0843__A1
*1256 ANTENNA__0843__A3
*1257 ANTENNA__0844__A1
*1258 ANTENNA__0844__A3
*1259 ANTENNA__0845__A1
*1260 ANTENNA__0845__A3
*1261 ANTENNA__0845__A4
*1262 ANTENNA__0846__A1
*1263 ANTENNA__0846__A2
*1264 ANTENNA__0846__A3
*1265 ANTENNA__0847__A1
*1266 ANTENNA__0847__A3
*1267 ANTENNA__0848__I
*1268 ANTENNA__0849__A1
*1269 ANTENNA__0849__A2
*1270 ANTENNA__0850__A1
*1271 ANTENNA__0850__A3
*1272 ANTENNA__0850__A4
*1273 ANTENNA__0851__A1
*1274 ANTENNA__0851__A2
*1275 ANTENNA__0852__A2
*1276 ANTENNA__0852__B1
*1277 ANTENNA__0853__A1
*1278 ANTENNA__0854__A1
*1279 ANTENNA__0854__A2
*1280 ANTENNA__0855__A1
*1281 ANTENNA__0856__A1
*1282 ANTENNA__0856__A2
*1283 ANTENNA__0856__A3
*1284 ANTENNA__0857__A1
*1285 ANTENNA__0857__A2
*1286 ANTENNA__0858__A1
*1287 ANTENNA__0859__A2
*1288 ANTENNA__0859__B1
*1289 ANTENNA__0861__A1
*1290 ANTENNA__0862__I
*1291 ANTENNA__0863__A1
*1292 ANTENNA__0863__A2
*1293 ANTENNA__0864__A1
*1294 ANTENNA__0864__A2
*1295 ANTENNA__0864__A3
*1296 ANTENNA__0864__A4
*1297 ANTENNA__0866__A1
*1298 ANTENNA__0866__A2
*1299 ANTENNA__0866__A3
*1300 ANTENNA__0866__A4
*1301 ANTENNA__0867__A1
*1302 ANTENNA__0867__A2
*1303 ANTENNA__0868__A1
*1304 ANTENNA__0868__A2
*1305 ANTENNA__0869__A1
*1306 ANTENNA__0869__A3
*1307 ANTENNA__0871__A2
*1308 ANTENNA__0871__B1
*1309 ANTENNA__0872__A2
*1310 ANTENNA__0872__B1
*1311 ANTENNA__0873__A1
*1312 ANTENNA__0873__A2
*1313 ANTENNA__0874__A1
*1314 ANTENNA__0874__A3
*1315 ANTENNA__0875__A1
*1316 ANTENNA__0875__A3
*1317 ANTENNA__0877__A1
*1318 ANTENNA__0877__A2
*1319 ANTENNA__0879__A1
*1320 ANTENNA__0879__A2
*1321 ANTENNA__0879__A3
*1322 ANTENNA__0879__A4
*1323 ANTENNA__0880__A1
*1324 ANTENNA__0880__A3
*1325 ANTENNA__0882__A2
*1326 ANTENNA__0882__B1
*1327 ANTENNA__0883__A2
*1328 ANTENNA__0883__B1
*1329 ANTENNA__0886__A1
*1330 ANTENNA__0886__A3
*1331 ANTENNA__0886__A4
*1332 ANTENNA__0887__A1
*1333 ANTENNA__0887__A3
*1334 ANTENNA__0890__A1
*1335 ANTENNA__0890__A3
*1336 ANTENNA__0892__A1
*1337 ANTENNA__0892__A3
*1338 ANTENNA__0893__I
*1339 ANTENNA__0894__A1
*1340 ANTENNA__0894__A2
*1341 ANTENNA__0894__A3
*1342 ANTENNA__0894__A4
*1343 ANTENNA__0895__A1
*1344 ANTENNA__0895__A2
*1345 ANTENNA__0895__A3
*1346 ANTENNA__0897__A1
*1347 ANTENNA__0897__A3
*1348 ANTENNA__0897__B1
*1349 ANTENNA__0899__A1
*1350 ANTENNA__0899__A2
*1351 ANTENNA__0899__A3
*1352 ANTENNA__0899__A4
*1353 ANTENNA__0900__A1
*1354 ANTENNA__0900__A2
*1355 ANTENNA__0900__A4
*1356 ANTENNA__0904__A1
*1357 ANTENNA__0904__A2
*1358 ANTENNA__0904__A3
*1359 ANTENNA__0904__A4
*1360 ANTENNA__0905__A1
*1361 ANTENNA__0905__A2
*1362 ANTENNA__0906__B
*1363 ANTENNA__0908__A1
*1364 ANTENNA__0908__A2
*1365 ANTENNA__0908__A4
*1366 ANTENNA__0909__A1
*1367 ANTENNA__0909__A3
*1368 ANTENNA__0909__A4
*1369 ANTENNA__0912__A1
*1370 ANTENNA__0912__A2
*1371 ANTENNA__0913__A1
*1372 ANTENNA__0913__A2
*1373 ANTENNA__0913__A3
*1374 ANTENNA__0913__A4
*1375 ANTENNA__0915__A2
*1376 ANTENNA__0915__A3
*1377 ANTENNA__0917__A1
*1378 ANTENNA__0917__A3
*1379 ANTENNA__0918__A1
*1380 ANTENNA__0918__A3
*1381 ANTENNA__0918__A4
*1382 ANTENNA__0919__A2
*1383 ANTENNA__0921__A1
*1384 ANTENNA__0921__A2
*1385 ANTENNA__0921__A3
*1386 ANTENNA__0922__A3
*1387 ANTENNA__0922__B1
*1388 ANTENNA__0923__A1
*1389 ANTENNA__0923__A2
*1390 ANTENNA__0924__A1
*1391 ANTENNA__0925__A1
*1392 ANTENNA__0925__A2
*1393 ANTENNA__0926__A2
*1394 ANTENNA__0927__A1
*1395 ANTENNA__0927__A3
*1396 ANTENNA__0929__A1
*1397 ANTENNA__0929__A3
*1398 ANTENNA__0930__A1
*1399 ANTENNA__0930__A3
*1400 ANTENNA__0931__A2
*1401 ANTENNA__0931__B1
*1402 ANTENNA__0932__A2
*1403 ANTENNA__0932__B1
*1404 ANTENNA__0936__A2
*1405 ANTENNA__0936__B1
*1406 ANTENNA__0937__A2
*1407 ANTENNA__0937__B1
*1408 ANTENNA__0940__A2
*1409 ANTENNA__0940__B1
*1410 ANTENNA__0941__A2
*1411 ANTENNA__0941__B1
*1412 ANTENNA__0943__A1
*1413 ANTENNA__0943__A3
*1414 ANTENNA__0947__A1
*1415 ANTENNA__0947__A3
*1416 ANTENNA__0950__A1
*1417 ANTENNA__0950__A3
*1418 ANTENNA__0950__B1
*1419 ANTENNA__0952__A1
*1420 ANTENNA__0952__A2
*1421 ANTENNA__0952__A4
*1422 ANTENNA__0956__B
*1423 ANTENNA__0958__A1
*1424 ANTENNA__0958__A3
*1425 ANTENNA__0958__A4
*1426 ANTENNA__0962__A2
*1427 ANTENNA__0962__A3
*1428 ANTENNA__0964__A1
*1429 ANTENNA__0964__A3
*1430 ANTENNA__0964__A4
*1431 ANTENNA__0965__A2
*1432 ANTENNA__0967__A1
*1433 ANTENNA__0967__A2
*1434 ANTENNA__0967__A3
*1435 ANTENNA__0968__A1
*1436 ANTENNA__0968__A3
*1437 ANTENNA__0968__B1
*1438 ANTENNA__0969__A1
*1439 ANTENNA__0969__A2
*1440 ANTENNA__0970__A1
*1441 ANTENNA__0971__A2
*1442 ANTENNA__0972__A1
*1443 ANTENNA__0972__A3
*1444 ANTENNA__0974__A1
*1445 ANTENNA__0974__A3
*1446 ANTENNA__0975__A1
*1447 ANTENNA__0975__A3
*1448 ANTENNA__0976__A2
*1449 ANTENNA__0976__B1
*1450 ANTENNA__0977__A2
*1451 ANTENNA__0977__B1
*1452 ANTENNA__0981__A2
*1453 ANTENNA__0981__B1
*1454 ANTENNA__0982__A2
*1455 ANTENNA__0982__B1
*1456 ANTENNA__0985__A2
*1457 ANTENNA__0985__B1
*1458 ANTENNA__0986__A2
*1459 ANTENNA__0986__B1
*1460 ANTENNA__0988__A1
*1461 ANTENNA__0988__A3
*1462 ANTENNA__0992__A1
*1463 ANTENNA__0992__A3
*1464 ANTENNA__0995__A1
*1465 ANTENNA__0995__A3
*1466 ANTENNA__0995__B1
*1467 ANTENNA__0997__A1
*1468 ANTENNA__0997__A2
*1469 ANTENNA__0997__A4
*1470 ANTENNA__1001__B
*1471 ANTENNA__1003__A1
*1472 ANTENNA__1003__A3
*1473 ANTENNA__1003__A4
*1474 ANTENNA__1007__A2
*1475 ANTENNA__1007__A3
*1476 ANTENNA__1009__A1
*1477 ANTENNA__1009__A3
*1478 ANTENNA__1009__A4
*1479 ANTENNA__1010__A2
*1480 ANTENNA__1012__A1
*1481 ANTENNA__1012__A2
*1482 ANTENNA__1012__A3
*1483 ANTENNA__1013__A1
*1484 ANTENNA__1013__A3
*1485 ANTENNA__1013__B1
*1486 ANTENNA__1014__A1
*1487 ANTENNA__1014__A2
*1488 ANTENNA__1015__A1
*1489 ANTENNA__1016__A2
*1490 ANTENNA__1017__A1
*1491 ANTENNA__1017__A3
*1492 ANTENNA__1019__A1
*1493 ANTENNA__1019__A3
*1494 ANTENNA__1020__A1
*1495 ANTENNA__1020__A3
*1496 ANTENNA__1021__A2
*1497 ANTENNA__1021__B1
*1498 ANTENNA__1022__A2
*1499 ANTENNA__1022__B1
*1500 ANTENNA__1023__A2
*1501 ANTENNA__1026__A2
*1502 ANTENNA__1026__B1
*1503 ANTENNA__1027__A2
*1504 ANTENNA__1027__B1
*1505 ANTENNA__1030__A2
*1506 ANTENNA__1030__B1
*1507 ANTENNA__1031__A2
*1508 ANTENNA__1031__B1
*1509 ANTENNA__1033__A1
*1510 ANTENNA__1033__A3
*1511 ANTENNA__1037__A1
*1512 ANTENNA__1037__A3
*1513 ANTENNA__1040__A1
*1514 ANTENNA__1040__A3
*1515 ANTENNA__1040__B1
*1516 ANTENNA__1042__A1
*1517 ANTENNA__1042__A2
*1518 ANTENNA__1042__A4
*1519 ANTENNA__1046__B
*1520 ANTENNA__1048__A1
*1521 ANTENNA__1048__A3
*1522 ANTENNA__1048__A4
*1523 ANTENNA__1052__A2
*1524 ANTENNA__1052__A3
*1525 ANTENNA__1054__A1
*1526 ANTENNA__1054__A3
*1527 ANTENNA__1054__A4
*1528 ANTENNA__1055__A2
*1529 ANTENNA__1057__A1
*1530 ANTENNA__1057__A2
*1531 ANTENNA__1057__A3
*1532 ANTENNA__1058__A3
*1533 ANTENNA__1058__B1
*1534 ANTENNA__1059__A1
*1535 ANTENNA__1059__A2
*1536 ANTENNA__1060__A1
*1537 ANTENNA__1062__A1
*1538 ANTENNA__1062__A2
*1539 ANTENNA__1063__A1
*1540 ANTENNA__1063__A3
*1541 ANTENNA__1063__A4
*1542 ANTENNA__1064__A1
*1543 ANTENNA__1065__I
*1544 ANTENNA__1066__A1
*1545 ANTENNA__1067__A1
*1546 ANTENNA__1067__A2
*1547 ANTENNA__1067__A4
*1548 ANTENNA__1068__A2
*1549 ANTENNA__1069__A1
*1550 ANTENNA__1069__A2
*1551 ANTENNA__1070__A2
*1552 ANTENNA__1070__B2
*1553 ANTENNA__1071__A1
*1554 ANTENNA__1071__A2
*1555 ANTENNA__1072__A1
*1556 ANTENNA__1072__A2
*1557 ANTENNA__1075__A1
*1558 ANTENNA__1075__A3
*1559 ANTENNA__1076__A1
*1560 ANTENNA__1076__A2
*1561 ANTENNA__1076__A3
*1562 ANTENNA__1077__A1
*1563 ANTENNA__1077__B2
*1564 ANTENNA__1078__A1
*1565 ANTENNA__1078__A2
*1566 ANTENNA__1078__A3
*1567 ANTENNA__1078__A4
*1568 ANTENNA__1079__B1
*1569 ANTENNA__1080__A1
*1570 ANTENNA__1080__A2
*1571 ANTENNA__1081__A1
*1572 ANTENNA__1081__A2
*1573 ANTENNA__1081__B2
*1574 ANTENNA__1082__A2
*1575 ANTENNA__1082__B1
*1576 ANTENNA__1085__A1
*1577 ANTENNA__1085__A2
*1578 ANTENNA__1085__A4
*1579 ANTENNA__1087__A1
*1580 ANTENNA__1087__A2
*1581 ANTENNA__1087__A3
*1582 ANTENNA__1090__A1
*1583 ANTENNA__1090__A3
*1584 ANTENNA__1090__B1
*1585 ANTENNA__1090__B2
*1586 ANTENNA__1092__A1
*1587 ANTENNA__1092__A3
*1588 ANTENNA__1092__A4
*1589 ANTENNA__1093__A2
*1590 ANTENNA__1095__A1
*1591 ANTENNA__1095__A3
*1592 ANTENNA__1095__A4
*1593 ANTENNA__1099__A1
*1594 ANTENNA__1099__A3
*1595 ANTENNA__1100__A1
*1596 ANTENNA__1100__A3
*1597 ANTENNA__1101__A1
*1598 ANTENNA__1101__A2
*1599 ANTENNA__1102__A1
*1600 ANTENNA__1102__A2
*1601 ANTENNA__1104__A3
*1602 ANTENNA__1105__I
*1603 ANTENNA__1106__A1
*1604 ANTENNA__1106__A3
*1605 ANTENNA__1107__A1
*1606 ANTENNA__1107__A3
*1607 ANTENNA__1107__B
*1608 ANTENNA__1108__A2
*1609 ANTENNA__1109__A1
*1610 ANTENNA__1112__A2
*1611 ANTENNA__1112__B
*1612 ANTENNA__1114__A1
*1613 ANTENNA__1115__A2
*1614 ANTENNA__1117__A1
*1615 ANTENNA__1118__A2
*1616 ANTENNA__1119__A1
*1617 ANTENNA__1119__A3
*1618 ANTENNA__1120__A1
*1619 ANTENNA__1120__A2
*1620 ANTENNA__1120__A3
*1621 ANTENNA__1120__A4
*1622 ANTENNA__1121__A1
*1623 ANTENNA__1121__A2
*1624 ANTENNA__1121__B2
*1625 ANTENNA__1123__A4
*1626 ANTENNA__1124__A2
*1627 ANTENNA__1125__B1
*1628 ANTENNA__1127__A2
*1629 ANTENNA__1128__A1
*1630 ANTENNA__1128__A3
*1631 ANTENNA__1129__B1
*1632 ANTENNA__1130__A1
*1633 ANTENNA__1130__A2
*1634 ANTENNA__1131__A2
*1635 ANTENNA__1134__A1
*1636 ANTENNA__1135__I
*1637 ANTENNA__1136__B1
*1638 ANTENNA__1137__B1
*1639 ANTENNA__1137__B2
*1640 ANTENNA__1138__B1
*1641 ANTENNA__1138__B2
*1642 ANTENNA__1140__B
*1643 ANTENNA__1140__C
*1644 ANTENNA__1141__A1
*1645 ANTENNA__1141__A3
*1646 ANTENNA__1141__A4
*1647 ANTENNA__1143__A1
*1648 ANTENNA__1143__A3
*1649 ANTENNA__1144__A2
*1650 ANTENNA__1145__A2
*1651 ANTENNA__1146__A1
*1652 ANTENNA__1148__A2
*1653 ANTENNA__1148__B
*1654 ANTENNA__1149__A1
*1655 ANTENNA__1151__A1
*1656 ANTENNA__1155__A1
*1657 ANTENNA__1155__A3
*1658 ANTENNA__1156__I
*1659 ANTENNA__1157__A2
*1660 ANTENNA__1159__A1
*1661 ANTENNA__1160__A1
*1662 ANTENNA__1161__A1
*1663 ANTENNA__1163__A1
*1664 ANTENNA__1164__A1
*1665 ANTENNA__1165__A1
*1666 ANTENNA__1165__B
*1667 ANTENNA__1170__A2
*1668 ANTENNA__1177__A1
*1669 ANTENNA__1177__A2
*1670 ANTENNA__1187__A1
*1671 ANTENNA__1190__A1
*1672 ANTENNA__1191__A1
*1673 ANTENNA__1192__B
*1674 ANTENNA__1193__A1
*1675 ANTENNA__1194__A1
*1676 ANTENNA__1194__A2
*1677 ANTENNA__1196__A2
*1678 ANTENNA__1196__B
*1679 ANTENNA__1197__A1
*1680 ANTENNA__1200__A1
*1681 ANTENNA__1205__A1
*1682 ANTENNA__1206__A1