*SPEF "ieee 1481-1999"
*DESIGN "temp_sensor"
*DATE "11:11:11 Fri 11 11, 1111"
*VENDOR "OpenRCX"
*PROGRAM "Parallel Extraction"
*VERSION "1.0"
*DESIGN_FLOW "NAME_SCOPE LOCAL" "PIN_CAP NONE"
*DIVIDER /
*DELIMITER :
*BUS_DELIMITER []
*T_UNIT 1 NS
*C_UNIT 1 PF
*R_UNIT 1 OHM
*L_UNIT 1 HENRY

*NAME_MAP
*3 clk
*4 i_wb_addr[0]
*5 i_wb_addr[10]
*6 i_wb_addr[11]
*7 i_wb_addr[12]
*8 i_wb_addr[13]
*9 i_wb_addr[14]
*10 i_wb_addr[15]
*11 i_wb_addr[16]
*12 i_wb_addr[17]
*13 i_wb_addr[18]
*14 i_wb_addr[19]
*15 i_wb_addr[1]
*16 i_wb_addr[20]
*17 i_wb_addr[21]
*18 i_wb_addr[22]
*19 i_wb_addr[23]
*20 i_wb_addr[24]
*21 i_wb_addr[25]
*22 i_wb_addr[26]
*23 i_wb_addr[27]
*24 i_wb_addr[28]
*25 i_wb_addr[29]
*26 i_wb_addr[2]
*27 i_wb_addr[30]
*28 i_wb_addr[31]
*29 i_wb_addr[3]
*30 i_wb_addr[4]
*31 i_wb_addr[5]
*32 i_wb_addr[6]
*33 i_wb_addr[7]
*34 i_wb_addr[8]
*35 i_wb_addr[9]
*36 i_wb_cyc
*37 i_wb_stb
*38 i_wb_we
*39 io_in[0]
*40 io_in[1]
*41 io_in[2]
*42 io_in[3]
*43 io_in[4]
*44 io_in[5]
*45 net54
*46 net55
*47 net56
*48 net57
*49 net58
*50 net59
*51 net60
*52 net61
*53 io_out[0]
*54 io_out[1]
*55 io_out[2]
*56 io_out[3]
*57 io_out[4]
*58 io_out[5]
*59 io_out[6]
*60 io_out[7]
*61 o_wb_ack
*62 o_wb_data[0]
*63 o_wb_data[1]
*64 o_wb_data[2]
*65 o_wb_data[3]
*66 o_wb_data[4]
*67 o_wb_data[5]
*68 o_wb_data[6]
*69 o_wb_data[7]
*70 net62
*71 reset
*72 _0000_
*73 _0001_
*74 _0002_
*75 _0003_
*76 _0004_
*77 _0005_
*78 _0006_
*79 _0007_
*80 _0008_
*81 _0009_
*82 _0010_
*83 _0011_
*84 _0012_
*85 _0013_
*86 _0014_
*87 _0015_
*88 _0016_
*89 _0017_
*90 _0018_
*91 _0019_
*92 _0020_
*93 _0021_
*94 _0022_
*95 _0023_
*96 _0024_
*97 _0025_
*98 _0026_
*99 _0027_
*100 _0028_
*101 _0029_
*102 _0030_
*103 _0031_
*104 _0032_
*105 _0033_
*106 _0034_
*107 _0035_
*108 _0036_
*109 _0037_
*110 _0038_
*111 _0039_
*112 _0040_
*113 _0041_
*114 _0042_
*115 _0043_
*116 _0044_
*117 _0045_
*118 _0046_
*119 _0047_
*120 _0048_
*121 _0049_
*122 _0050_
*123 _0051_
*124 _0052_
*125 _0053_
*126 _0054_
*127 _0055_
*128 _0056_
*129 _0057_
*130 _0058_
*131 _0059_
*132 _0060_
*133 _0061_
*134 _0062_
*135 _0063_
*136 _0064_
*137 _0065_
*138 _0066_
*139 _0067_
*140 _0068_
*141 _0069_
*142 _0070_
*143 _0071_
*144 _0072_
*145 _0073_
*146 _0074_
*147 _0075_
*148 _0076_
*149 _0077_
*150 _0078_
*151 _0079_
*152 _0080_
*153 _0081_
*154 _0082_
*155 _0083_
*156 _0084_
*157 _0085_
*158 _0086_
*159 _0087_
*160 _0088_
*161 _0089_
*162 _0090_
*163 _0091_
*164 _0092_
*165 _0093_
*166 _0094_
*167 _0095_
*168 _0096_
*169 _0097_
*170 _0098_
*171 _0099_
*172 _0100_
*173 _0101_
*174 _0102_
*175 _0103_
*176 _0104_
*177 _0105_
*178 _0106_
*179 _0107_
*180 _0108_
*181 _0109_
*182 _0110_
*183 _0111_
*184 _0112_
*185 _0113_
*186 _0114_
*187 _0115_
*188 _0116_
*189 _0117_
*190 _0118_
*191 _0119_
*192 _0120_
*193 _0121_
*194 _0122_
*195 _0123_
*196 _0124_
*197 _0125_
*198 _0126_
*199 _0127_
*200 _0128_
*201 _0129_
*202 _0130_
*203 _0131_
*204 _0132_
*205 _0133_
*206 _0134_
*207 _0135_
*208 _0136_
*209 _0137_
*210 _0138_
*211 _0139_
*212 _0140_
*213 _0141_
*214 _0142_
*215 _0143_
*216 _0144_
*217 _0145_
*218 _0146_
*219 _0147_
*220 _0148_
*221 _0149_
*222 _0150_
*223 _0151_
*224 _0152_
*225 _0153_
*226 _0154_
*227 _0155_
*228 _0156_
*229 _0157_
*230 _0158_
*231 _0159_
*232 _0160_
*233 _0161_
*234 _0162_
*235 _0163_
*236 _0164_
*237 _0165_
*238 _0166_
*239 _0167_
*240 _0168_
*241 _0169_
*242 _0170_
*243 _0171_
*244 _0172_
*245 _0173_
*246 _0174_
*247 _0175_
*248 _0176_
*249 _0177_
*250 _0178_
*251 _0179_
*252 _0180_
*253 _0181_
*254 _0182_
*255 _0183_
*256 _0184_
*257 _0185_
*258 _0186_
*259 _0187_
*260 _0188_
*261 _0189_
*262 _0190_
*263 _0191_
*264 _0192_
*265 _0193_
*266 _0194_
*267 _0195_
*268 _0196_
*269 _0197_
*270 _0198_
*271 _0199_
*272 _0200_
*273 _0201_
*274 _0202_
*275 _0203_
*276 _0204_
*277 _0205_
*278 _0206_
*279 _0207_
*280 _0208_
*281 _0209_
*282 _0210_
*283 _0211_
*284 _0212_
*285 _0213_
*286 _0214_
*287 _0215_
*288 _0216_
*289 _0217_
*290 _0218_
*291 _0219_
*292 _0220_
*293 _0221_
*294 _0222_
*295 _0223_
*296 _0224_
*297 _0225_
*298 _0226_
*299 _0227_
*300 _0228_
*301 _0229_
*302 _0230_
*303 _0231_
*304 _0232_
*305 _0233_
*306 _0234_
*307 _0235_
*308 _0236_
*309 _0237_
*310 _0238_
*311 _0239_
*312 _0240_
*313 _0241_
*314 _0242_
*315 _0243_
*316 _0244_
*317 _0245_
*318 _0246_
*319 _0247_
*320 _0248_
*321 _0249_
*322 _0250_
*323 _0251_
*324 _0252_
*325 _0253_
*326 _0254_
*327 _0255_
*328 _0256_
*329 _0257_
*330 _0258_
*331 _0259_
*332 _0260_
*333 _0261_
*334 _0262_
*335 _0263_
*336 _0264_
*337 _0265_
*338 _0266_
*339 _0267_
*340 _0268_
*341 _0269_
*342 _0270_
*343 _0271_
*344 _0272_
*345 _0273_
*346 _0274_
*347 _0275_
*348 _0276_
*349 _0277_
*350 _0278_
*351 _0279_
*352 _0280_
*353 _0281_
*354 _0282_
*355 _0283_
*356 _0284_
*357 _0285_
*358 _0286_
*359 _0287_
*360 _0288_
*361 _0289_
*362 _0290_
*363 _0291_
*364 _0292_
*365 _0293_
*366 _0294_
*367 _0295_
*368 _0296_
*369 _0297_
*370 _0298_
*371 _0299_
*372 _0300_
*373 _0301_
*374 _0302_
*375 _0303_
*376 _0304_
*377 _0305_
*378 _0306_
*379 _0307_
*380 _0308_
*381 _0309_
*382 _0310_
*383 _0311_
*384 _0312_
*385 _0313_
*386 _0314_
*387 _0315_
*388 _0316_
*389 _0317_
*390 _0318_
*391 _0319_
*392 _0320_
*393 _0321_
*394 _0322_
*395 _0323_
*396 _0324_
*397 _0325_
*398 _0326_
*399 _0327_
*400 _0328_
*401 _0329_
*402 _0330_
*403 _0331_
*404 _0332_
*405 _0333_
*406 _0334_
*407 _0335_
*408 _0336_
*409 _0337_
*410 _0338_
*411 _0339_
*412 _0340_
*413 _0341_
*414 _0342_
*415 _0343_
*416 _0344_
*417 _0345_
*418 _0346_
*419 _0347_
*420 _0348_
*421 _0349_
*422 _0350_
*423 _0351_
*424 _0352_
*425 _0353_
*426 _0354_
*427 _0355_
*428 _0356_
*429 _0357_
*430 _0358_
*431 _0359_
*432 _0360_
*433 _0361_
*434 _0362_
*435 _0363_
*436 _0364_
*437 _0365_
*438 _0366_
*439 _0367_
*440 _0368_
*441 _0369_
*442 _0370_
*443 _0371_
*444 _0372_
*445 _0373_
*446 _0374_
*447 _0375_
*448 _0376_
*449 _0377_
*450 _0378_
*451 _0379_
*452 _0380_
*453 _0381_
*454 _0382_
*455 _0383_
*456 _0384_
*457 _0385_
*458 _0386_
*459 _0387_
*460 _0388_
*461 _0389_
*462 _0390_
*463 _0391_
*464 _0392_
*465 _0393_
*466 _0394_
*467 _0395_
*468 _0396_
*469 _0397_
*470 _0398_
*471 _0399_
*472 _0400_
*473 _0401_
*474 _0402_
*475 _0403_
*476 _0404_
*477 _0405_
*478 _0406_
*479 _0407_
*480 _0408_
*481 _0409_
*482 _0410_
*483 _0411_
*484 _0412_
*485 _0413_
*486 _0414_
*487 _0415_
*488 _0416_
*489 _0417_
*490 _0418_
*491 _0419_
*492 _0420_
*493 _0421_
*494 _0422_
*495 _0423_
*496 _0424_
*497 _0425_
*498 _0426_
*499 _0427_
*500 _0428_
*501 _0429_
*502 _0430_
*503 _0431_
*504 _0432_
*505 _0433_
*506 _0434_
*507 _0435_
*508 _0436_
*509 _0437_
*510 _0438_
*511 _0439_
*512 _0440_
*513 _0441_
*514 _0442_
*515 _0443_
*516 _0444_
*517 _0445_
*518 _0446_
*519 _0447_
*520 _0448_
*521 _0449_
*522 _0450_
*523 _0451_
*524 _0452_
*525 _0453_
*526 _0454_
*527 _0455_
*528 _0456_
*529 _0457_
*530 _0458_
*531 _0459_
*532 _0460_
*533 _0461_
*534 _0462_
*535 _0463_
*536 _0464_
*537 _0465_
*538 _0466_
*539 _0467_
*540 _0468_
*541 _0469_
*542 _0470_
*543 _0471_
*544 _0472_
*545 _0473_
*546 _0474_
*547 _0475_
*548 _0476_
*549 _0477_
*550 _0478_
*551 _0479_
*552 _0480_
*553 _0481_
*554 _0482_
*555 _0483_
*556 _0484_
*557 _0485_
*558 _0486_
*559 _0487_
*560 _0488_
*561 _0489_
*562 _0490_
*563 _0491_
*564 _0492_
*565 _0493_
*566 _0494_
*567 _0495_
*568 _0496_
*569 _0497_
*570 _0498_
*571 _0499_
*572 _0500_
*573 _0501_
*574 _0502_
*575 _0503_
*576 _0504_
*577 _0505_
*578 _0506_
*579 _0507_
*580 _0508_
*581 _0509_
*582 _0510_
*583 _0511_
*584 _0512_
*585 _0513_
*586 _0514_
*587 _0515_
*588 _0516_
*589 _0517_
*590 _0518_
*591 _0519_
*592 _0520_
*593 _0521_
*594 _0522_
*595 _0523_
*596 _0524_
*597 _0525_
*598 _0526_
*599 _0527_
*600 _0528_
*601 _0529_
*602 _0530_
*603 _0531_
*604 _0532_
*605 _0533_
*606 _0534_
*607 _0535_
*608 _0536_
*609 _0537_
*610 _0538_
*611 _0539_
*612 _0540_
*613 _0541_
*614 _0542_
*615 _0543_
*616 _0544_
*617 _0545_
*618 _0546_
*619 _0547_
*620 _0548_
*621 _0549_
*622 _0550_
*623 _0551_
*624 _0552_
*625 _0553_
*626 _0554_
*627 _0555_
*628 _0556_
*629 _0557_
*630 _0558_
*631 _0559_
*632 _0560_
*633 _0561_
*634 _0562_
*635 _0563_
*636 _0564_
*637 _0565_
*638 _0566_
*639 _0567_
*640 _0568_
*641 _0569_
*642 _0570_
*643 _0571_
*644 _0572_
*645 _0573_
*646 _0574_
*647 _0575_
*648 _0576_
*649 _0577_
*650 _0578_
*651 _0579_
*652 _0580_
*653 _0581_
*654 _0582_
*655 _0583_
*656 _0584_
*657 _0585_
*658 _0586_
*659 _0587_
*660 _0588_
*661 _0589_
*662 _0590_
*663 _0591_
*664 _0592_
*665 _0593_
*666 _0594_
*667 _0595_
*668 _0596_
*669 _0597_
*670 _0598_
*671 _0599_
*672 _0600_
*673 _0601_
*674 _0602_
*675 _0603_
*676 _0604_
*677 _0605_
*678 _0606_
*679 _0607_
*680 _0608_
*681 _0609_
*682 _0610_
*683 _0611_
*684 _0612_
*685 _0613_
*686 _0614_
*687 _0615_
*688 _0616_
*689 _0617_
*690 _0618_
*691 _0619_
*692 _0620_
*693 _0621_
*694 _0622_
*695 _0623_
*696 _0624_
*697 _0625_
*698 _0626_
*699 _0627_
*700 _0628_
*701 _0629_
*702 _0630_
*703 _0631_
*704 _0632_
*705 _0633_
*706 _0634_
*707 _0635_
*708 _0636_
*709 _0637_
*710 _0638_
*711 _0639_
*712 _0640_
*713 _0641_
*714 _0642_
*715 _0643_
*716 _0644_
*717 _0645_
*718 _0646_
*719 _0647_
*720 _0648_
*721 _0649_
*722 _0650_
*723 _0651_
*724 _0652_
*725 _0653_
*726 _0654_
*727 _0655_
*728 _0656_
*729 _0657_
*730 _0658_
*731 _0659_
*732 _0660_
*733 _0661_
*734 _0662_
*735 _0663_
*736 _0664_
*737 _0665_
*738 _0666_
*739 _0667_
*740 _0668_
*741 _0669_
*742 _0670_
*743 _0671_
*744 _0672_
*745 _0673_
*746 _0674_
*747 _0675_
*748 _0676_
*749 _0677_
*750 _0678_
*751 _0679_
*752 _0680_
*753 _0681_
*754 _0682_
*755 _0683_
*756 _0684_
*757 _0685_
*758 _0686_
*759 _0687_
*760 _0688_
*761 _0689_
*762 _0690_
*763 _0691_
*764 _0692_
*765 _0693_
*766 _0694_
*767 _0695_
*768 _0696_
*769 _0697_
*770 _0698_
*771 _0699_
*772 _0700_
*773 _0701_
*774 _0702_
*775 _0703_
*776 _0704_
*777 _0705_
*778 _0706_
*779 _0707_
*780 _0708_
*781 _0709_
*782 _0710_
*783 _0711_
*784 _0712_
*785 _0713_
*786 _0714_
*787 _0715_
*788 _0716_
*789 _0717_
*790 _0718_
*791 _0719_
*792 _0720_
*793 _0721_
*794 _0722_
*795 _0723_
*796 _0724_
*797 _0725_
*798 _0726_
*799 _0727_
*800 _0728_
*801 _0729_
*802 _0730_
*803 _0731_
*804 _0732_
*805 _0733_
*806 _0734_
*807 _0735_
*808 _0736_
*809 _0737_
*810 _0738_
*811 _0739_
*812 _0740_
*813 _0741_
*814 _0742_
*815 _0743_
*816 _0744_
*817 _0745_
*818 _0746_
*819 _0747_
*820 _0748_
*821 _0749_
*822 _0750_
*823 _0751_
*824 _0752_
*825 _0753_
*826 _0754_
*827 _0755_
*828 _0756_
*829 _0757_
*830 _0758_
*831 _0759_
*832 _0760_
*833 _0761_
*834 _0762_
*835 _0763_
*836 _0764_
*837 _0765_
*838 _0766_
*839 _0767_
*840 _0768_
*841 _0769_
*842 _0770_
*843 _0771_
*844 _0772_
*845 _0773_
*846 _0774_
*847 _0775_
*848 _0776_
*849 _0777_
*850 _0778_
*851 _0779_
*852 _0780_
*853 _0781_
*854 _0782_
*855 _0783_
*856 _0784_
*857 _0785_
*858 _0786_
*859 _0787_
*860 _0788_
*861 _0789_
*862 _0790_
*863 _0791_
*864 _0792_
*865 _0793_
*866 _0794_
*867 _0795_
*868 _0796_
*869 _0797_
*870 _0798_
*871 _0799_
*872 _0800_
*873 _0801_
*874 _0802_
*875 _0803_
*876 _0804_
*877 _0805_
*878 _0806_
*879 _0807_
*880 _0808_
*881 _0809_
*882 _0810_
*883 _0811_
*884 _0812_
*885 _0813_
*886 _0814_
*887 _0815_
*888 _0816_
*889 _0817_
*890 _0818_
*891 _0819_
*892 _0820_
*893 _0821_
*894 _0822_
*895 _0823_
*896 _0824_
*897 _0825_
*898 _0826_
*899 _0827_
*900 _0828_
*901 _0829_
*902 _0830_
*903 _0831_
*904 _0832_
*905 _0833_
*906 _0834_
*907 _0835_
*908 _0836_
*909 _0837_
*910 _0838_
*911 _0839_
*912 _0840_
*913 _0841_
*914 cal_lut\[100\]
*915 cal_lut\[101\]
*916 cal_lut\[102\]
*917 cal_lut\[103\]
*918 cal_lut\[104\]
*919 cal_lut\[105\]
*920 cal_lut\[106\]
*921 cal_lut\[107\]
*922 cal_lut\[108\]
*923 cal_lut\[109\]
*924 cal_lut\[10\]
*925 cal_lut\[110\]
*926 cal_lut\[111\]
*927 cal_lut\[112\]
*928 cal_lut\[113\]
*929 cal_lut\[114\]
*930 cal_lut\[115\]
*931 cal_lut\[116\]
*932 cal_lut\[117\]
*933 cal_lut\[118\]
*934 cal_lut\[119\]
*935 cal_lut\[11\]
*936 cal_lut\[120\]
*937 cal_lut\[121\]
*938 cal_lut\[122\]
*939 cal_lut\[123\]
*940 cal_lut\[124\]
*941 cal_lut\[125\]
*942 cal_lut\[126\]
*943 cal_lut\[127\]
*944 cal_lut\[128\]
*945 cal_lut\[129\]
*946 cal_lut\[12\]
*947 cal_lut\[130\]
*948 cal_lut\[131\]
*949 cal_lut\[132\]
*950 cal_lut\[133\]
*951 cal_lut\[134\]
*952 cal_lut\[135\]
*953 cal_lut\[136\]
*954 cal_lut\[137\]
*955 cal_lut\[138\]
*956 cal_lut\[139\]
*957 cal_lut\[13\]
*958 cal_lut\[140\]
*959 cal_lut\[141\]
*960 cal_lut\[142\]
*961 cal_lut\[143\]
*962 cal_lut\[144\]
*963 cal_lut\[145\]
*964 cal_lut\[146\]
*965 cal_lut\[147\]
*966 cal_lut\[148\]
*967 cal_lut\[149\]
*968 cal_lut\[14\]
*969 cal_lut\[150\]
*970 cal_lut\[151\]
*971 cal_lut\[152\]
*972 cal_lut\[153\]
*973 cal_lut\[154\]
*974 cal_lut\[155\]
*975 cal_lut\[156\]
*976 cal_lut\[157\]
*977 cal_lut\[158\]
*978 cal_lut\[159\]
*979 cal_lut\[15\]
*980 cal_lut\[160\]
*981 cal_lut\[161\]
*982 cal_lut\[162\]
*983 cal_lut\[163\]
*984 cal_lut\[164\]
*985 cal_lut\[165\]
*986 cal_lut\[166\]
*987 cal_lut\[167\]
*988 cal_lut\[168\]
*989 cal_lut\[169\]
*990 cal_lut\[16\]
*991 cal_lut\[170\]
*992 cal_lut\[171\]
*993 cal_lut\[172\]
*994 cal_lut\[173\]
*995 cal_lut\[174\]
*996 cal_lut\[175\]
*997 cal_lut\[176\]
*998 cal_lut\[177\]
*999 cal_lut\[178\]
*1000 cal_lut\[179\]
*1001 cal_lut\[17\]
*1002 cal_lut\[180\]
*1003 cal_lut\[181\]
*1004 cal_lut\[182\]
*1005 cal_lut\[183\]
*1006 cal_lut\[184\]
*1007 cal_lut\[185\]
*1008 cal_lut\[186\]
*1009 cal_lut\[187\]
*1010 cal_lut\[188\]
*1011 cal_lut\[189\]
*1012 cal_lut\[18\]
*1013 cal_lut\[190\]
*1014 cal_lut\[191\]
*1015 cal_lut\[192\]
*1016 cal_lut\[19\]
*1017 cal_lut\[1\]
*1018 cal_lut\[20\]
*1019 cal_lut\[21\]
*1020 cal_lut\[22\]
*1021 cal_lut\[23\]
*1022 cal_lut\[24\]
*1023 cal_lut\[25\]
*1024 cal_lut\[26\]
*1025 cal_lut\[27\]
*1026 cal_lut\[28\]
*1027 cal_lut\[29\]
*1028 cal_lut\[2\]
*1029 cal_lut\[30\]
*1030 cal_lut\[31\]
*1031 cal_lut\[32\]
*1032 cal_lut\[33\]
*1033 cal_lut\[34\]
*1034 cal_lut\[35\]
*1035 cal_lut\[36\]
*1036 cal_lut\[37\]
*1037 cal_lut\[38\]
*1038 cal_lut\[39\]
*1039 cal_lut\[3\]
*1040 cal_lut\[40\]
*1041 cal_lut\[41\]
*1042 cal_lut\[42\]
*1043 cal_lut\[43\]
*1044 cal_lut\[44\]
*1045 cal_lut\[45\]
*1046 cal_lut\[46\]
*1047 cal_lut\[47\]
*1048 cal_lut\[48\]
*1049 cal_lut\[49\]
*1050 cal_lut\[4\]
*1051 cal_lut\[50\]
*1052 cal_lut\[51\]
*1053 cal_lut\[52\]
*1054 cal_lut\[53\]
*1055 cal_lut\[54\]
*1056 cal_lut\[55\]
*1057 cal_lut\[56\]
*1058 cal_lut\[57\]
*1059 cal_lut\[58\]
*1060 cal_lut\[59\]
*1061 cal_lut\[5\]
*1062 cal_lut\[60\]
*1063 cal_lut\[61\]
*1064 cal_lut\[62\]
*1065 cal_lut\[63\]
*1066 cal_lut\[64\]
*1067 cal_lut\[65\]
*1068 cal_lut\[66\]
*1069 cal_lut\[67\]
*1070 cal_lut\[68\]
*1071 cal_lut\[69\]
*1072 cal_lut\[6\]
*1073 cal_lut\[70\]
*1074 cal_lut\[71\]
*1075 cal_lut\[72\]
*1076 cal_lut\[73\]
*1077 cal_lut\[74\]
*1078 cal_lut\[75\]
*1079 cal_lut\[76\]
*1080 cal_lut\[77\]
*1081 cal_lut\[78\]
*1082 cal_lut\[79\]
*1083 cal_lut\[7\]
*1084 cal_lut\[80\]
*1085 cal_lut\[81\]
*1086 cal_lut\[82\]
*1087 cal_lut\[83\]
*1088 cal_lut\[84\]
*1089 cal_lut\[85\]
*1090 cal_lut\[86\]
*1091 cal_lut\[87\]
*1092 cal_lut\[88\]
*1093 cal_lut\[89\]
*1094 cal_lut\[8\]
*1095 cal_lut\[90\]
*1096 cal_lut\[91\]
*1097 cal_lut\[92\]
*1098 cal_lut\[93\]
*1099 cal_lut\[94\]
*1100 cal_lut\[95\]
*1101 cal_lut\[96\]
*1102 cal_lut\[97\]
*1103 cal_lut\[98\]
*1104 cal_lut\[99\]
*1105 cal_lut\[9\]
*1106 clknet_0__0385_
*1107 clknet_0__0387_
*1108 clknet_0__0737_
*1109 clknet_0__0750_
*1110 clknet_0_clk
*1111 clknet_0_net66
*1112 clknet_0_temp1\.i_precharge_n
*1113 clknet_1_0__leaf__0385_
*1114 clknet_1_0__leaf__0387_
*1115 clknet_1_0__leaf__0737_
*1116 clknet_1_0__leaf__0750_
*1117 clknet_1_0__leaf_net66
*1118 clknet_1_0__leaf_temp1\.i_precharge_n
*1119 clknet_1_1__leaf__0385_
*1120 clknet_1_1__leaf__0387_
*1121 clknet_1_1__leaf__0737_
*1122 clknet_1_1__leaf__0750_
*1123 clknet_1_1__leaf_net66
*1124 clknet_1_1__leaf_temp1\.i_precharge_n
*1125 clknet_2_0__leaf_clk
*1126 clknet_2_1__leaf_clk
*1127 clknet_2_2__leaf_clk
*1128 clknet_2_3__leaf_clk
*1129 ctr\[0\]
*1130 ctr\[10\]
*1131 ctr\[11\]
*1132 ctr\[12\]
*1133 ctr\[1\]
*1134 ctr\[2\]
*1135 ctr\[3\]
*1136 ctr\[4\]
*1137 ctr\[5\]
*1138 ctr\[6\]
*1139 ctr\[7\]
*1140 ctr\[8\]
*1141 ctr\[9\]
*1142 dbg3\[0\]
*1143 dbg3\[1\]
*1144 dbg3\[2\]
*1145 dbg3\[3\]
*1146 dbg3\[4\]
*1147 dbg3\[5\]
*1148 dec1\._000_
*1149 dec1\._001_
*1150 dec1\._002_
*1151 dec1\._003_
*1152 dec1\._004_
*1153 dec1\._005_
*1154 dec1\._006_
*1155 dec1\._007_
*1156 dec1\._008_
*1157 dec1\._009_
*1158 dec1\._010_
*1159 dec1\._011_
*1160 dec1\._012_
*1161 dec1\._013_
*1162 dec1\._014_
*1163 dec1\._015_
*1164 dec1\._016_
*1165 dec1\._017_
*1166 dec1\._018_
*1167 dec1\._019_
*1168 dec1\._020_
*1169 dec1\._021_
*1170 dec1\._022_
*1171 dec1\._023_
*1172 dec1\._024_
*1173 dec1\._025_
*1174 dec1\._026_
*1175 dec1\._027_
*1176 dec1\._028_
*1177 dec1\._029_
*1178 dec1\._030_
*1179 dec1\._031_
*1180 dec1\._032_
*1181 dec1\._033_
*1182 dec1\._034_
*1183 dec1\._035_
*1184 dec1\._036_
*1185 dec1\._037_
*1186 dec1\._038_
*1187 dec1\._039_
*1188 dec1\._040_
*1189 dec1\._041_
*1190 dec1\._042_
*1191 dec1\._043_
*1192 dec1\._044_
*1193 dec1\._045_
*1194 dec1\._046_
*1195 dec1\._047_
*1196 dec1\._048_
*1197 dec1\._049_
*1198 dec1\._050_
*1199 dec1\._051_
*1200 dec1\._052_
*1201 dec1\._053_
*1202 dec1\._054_
*1203 dec1\._055_
*1204 dec1\._056_
*1205 dec1\._057_
*1206 dec1\._058_
*1207 dec1\._059_
*1208 dec1\.i_bin\[0\]
*1209 dec1\.i_bin\[1\]
*1210 dec1\.i_bin\[2\]
*1211 dec1\.i_bin\[3\]
*1212 dec1\.i_bin\[4\]
*1213 dec1\.i_bin\[5\]
*1214 dec1\.i_bin\[6\]
*1215 dec1\.i_ones
*1216 dec1\.i_tens
*1217 dec1\.o_dec\[0\]
*1218 dec1\.o_dec\[1\]
*1219 dec1\.o_dec\[2\]
*1220 dec1\.o_dec\[3\]
*1221 net1
*1222 net10
*1223 net11
*1224 net12
*1225 net13
*1226 net14
*1227 net15
*1228 net16
*1229 net17
*1230 net18
*1231 net19
*1232 net2
*1233 net20
*1234 net21
*1235 net22
*1236 net23
*1237 net24
*1238 net25
*1239 net26
*1240 net27
*1241 net28
*1242 net29
*1243 net3
*1244 net30
*1245 net31
*1246 net32
*1247 net33
*1248 net34
*1249 net35
*1250 net36
*1251 net37
*1252 net38
*1253 net39
*1254 net4
*1255 net40
*1256 net41
*1257 net42
*1258 net43
*1259 net44
*1260 net45
*1261 net46
*1262 net47
*1263 net48
*1264 net49
*1265 net5
*1266 net50
*1267 net51
*1268 net52
*1269 net53
*1270 net6
*1271 net63
*1272 net64
*1273 net65
*1274 net66
*1275 net67
*1276 net68
*1277 net69
*1278 net7
*1279 net70
*1280 net8
*1281 net9
*1282 seg1\._00_
*1283 seg1\._01_
*1284 seg1\._02_
*1285 seg1\._03_
*1286 seg1\._04_
*1287 seg1\._05_
*1288 seg1\._06_
*1289 seg1\._07_
*1290 seg1\._08_
*1291 seg1\._09_
*1292 seg1\._10_
*1293 seg1\._11_
*1294 seg1\._12_
*1295 seg1\._13_
*1296 seg1\._14_
*1297 seg1\._15_
*1298 seg1\._16_
*1299 seg1\._17_
*1300 seg1\._18_
*1301 seg1\._19_
*1302 seg1\._20_
*1303 seg1\._21_
*1304 seg1\._22_
*1305 seg1\._23_
*1306 seg1\._24_
*1307 seg1\._25_
*1308 seg1\.o_segments\[0\]
*1309 seg1\.o_segments\[1\]
*1310 seg1\.o_segments\[2\]
*1311 seg1\.o_segments\[3\]
*1312 seg1\.o_segments\[4\]
*1313 seg1\.o_segments\[5\]
*1314 seg1\.o_segments\[6\]
*1315 temp1\.dac\._0_
*1316 temp1\.dac\._1_
*1317 temp1\.dac\.i_data\[0\]
*1318 temp1\.dac\.i_data\[1\]
*1319 temp1\.dac\.i_data\[2\]
*1320 temp1\.dac\.i_data\[3\]
*1321 temp1\.dac\.i_data\[4\]
*1322 temp1\.dac\.i_data\[5\]
*1323 temp1\.dac\.i_enable
*1324 temp1\.dac\.parallel_cells\[0\]\.vdac_batch\._0_
*1325 temp1\.dac\.parallel_cells\[0\]\.vdac_batch\._1_
*1326 temp1\.dac\.parallel_cells\[0\]\.vdac_batch\._2_
*1327 temp1\.dac\.parallel_cells\[0\]\.vdac_batch\.en_pupd
*1328 temp1\.dac\.parallel_cells\[0\]\.vdac_batch\.en_vref
*1329 temp1\.dac\.parallel_cells\[0\]\.vdac_batch\.npu_pd
*1330 temp1\.dac\.parallel_cells\[0\]\.vdac_batch\.vout_notouch_
*1331 temp1\.dac\.parallel_cells\[1\]\.vdac_batch\._0_
*1332 temp1\.dac\.parallel_cells\[1\]\.vdac_batch\._1_
*1333 temp1\.dac\.parallel_cells\[1\]\.vdac_batch\._2_
*1334 temp1\.dac\.parallel_cells\[1\]\.vdac_batch\.en_pupd
*1335 temp1\.dac\.parallel_cells\[1\]\.vdac_batch\.en_vref
*1336 temp1\.dac\.parallel_cells\[1\]\.vdac_batch\.npu_pd
*1337 temp1\.dac\.parallel_cells\[2\]\.vdac_batch\._0_
*1338 temp1\.dac\.parallel_cells\[2\]\.vdac_batch\._1_
*1339 temp1\.dac\.parallel_cells\[2\]\.vdac_batch\._2_
*1340 temp1\.dac\.parallel_cells\[2\]\.vdac_batch\.en_pupd
*1341 temp1\.dac\.parallel_cells\[2\]\.vdac_batch\.en_vref
*1342 temp1\.dac\.parallel_cells\[2\]\.vdac_batch\.npu_pd
*1343 temp1\.dac\.parallel_cells\[3\]\.vdac_batch\._0_
*1344 temp1\.dac\.parallel_cells\[3\]\.vdac_batch\._1_
*1345 temp1\.dac\.parallel_cells\[3\]\.vdac_batch\._2_
*1346 temp1\.dac\.parallel_cells\[3\]\.vdac_batch\.en_pupd
*1347 temp1\.dac\.parallel_cells\[3\]\.vdac_batch\.en_vref
*1348 temp1\.dac\.parallel_cells\[3\]\.vdac_batch\.npu_pd
*1349 temp1\.dac\.parallel_cells\[4\]\.vdac_batch\._0_
*1350 temp1\.dac\.parallel_cells\[4\]\.vdac_batch\._1_
*1351 temp1\.dac\.parallel_cells\[4\]\.vdac_batch\._2_
*1352 temp1\.dac\.parallel_cells\[4\]\.vdac_batch\.en_pupd
*1353 temp1\.dac\.parallel_cells\[4\]\.vdac_batch\.en_vref
*1354 temp1\.dac\.parallel_cells\[4\]\.vdac_batch\.npu_pd
*1355 temp1\.dac\.vdac_single\._0_
*1356 temp1\.dac\.vdac_single\._1_
*1357 temp1\.dac\.vdac_single\._2_
*1358 temp1\.dac\.vdac_single\.en_pupd
*1359 temp1\.dac\.vdac_single\.en_vref
*1360 temp1\.dac\.vdac_single\.npu_pd
*1361 temp1\.dcdel_capnode_notouch_
*1362 temp1\.i_precharge_n
*1363 temp_delay_last
*1364 ANTENNA__0842__I
*1365 ANTENNA__0843__I
*1366 ANTENNA__0846__I
*1367 ANTENNA__0848__A2
*1368 ANTENNA__0849__A1
*1369 ANTENNA__0849__A2
*1370 ANTENNA__0849__A3
*1371 ANTENNA__0850__A1
*1372 ANTENNA__0851__A1
*1373 ANTENNA__0851__A2
*1374 ANTENNA__0855__A1
*1375 ANTENNA__0855__A2
*1376 ANTENNA__0858__I
*1377 ANTENNA__0859__A1
*1378 ANTENNA__0859__A2
*1379 ANTENNA__0862__I
*1380 ANTENNA__0863__I
*1381 ANTENNA__0866__A1
*1382 ANTENNA__0866__A2
*1383 ANTENNA__0866__A3
*1384 ANTENNA__0869__A1
*1385 ANTENNA__0869__A2
*1386 ANTENNA__0870__A1
*1387 ANTENNA__0871__I
*1388 ANTENNA__0872__A1
*1389 ANTENNA__0872__A2
*1390 ANTENNA__0872__A3
*1391 ANTENNA__0872__A4
*1392 ANTENNA__0873__A1
*1393 ANTENNA__0874__I
*1394 ANTENNA__0876__A1
*1395 ANTENNA__0876__A2
*1396 ANTENNA__0876__A3
*1397 ANTENNA__0876__A4
*1398 ANTENNA__0877__A1
*1399 ANTENNA__0877__A2
*1400 ANTENNA__0878__A2
*1401 ANTENNA__0878__B1
*1402 ANTENNA__0879__A1
*1403 ANTENNA__0880__A1
*1404 ANTENNA__0880__A2
*1405 ANTENNA__0881__A1
*1406 ANTENNA__0881__A2
*1407 ANTENNA__0882__A1
*1408 ANTENNA__0882__A2
*1409 ANTENNA__0882__A3
*1410 ANTENNA__0883__B1
*1411 ANTENNA__0884__A1
*1412 ANTENNA__0884__A2
*1413 ANTENNA__0885__A1
*1414 ANTENNA__0885__A2
*1415 ANTENNA__0885__A3
*1416 ANTENNA__0886__A1
*1417 ANTENNA__0886__A2
*1418 ANTENNA__0887__A1
*1419 ANTENNA__0888__A2
*1420 ANTENNA__0888__B1
*1421 ANTENNA__0889__I
*1422 ANTENNA__0890__A1
*1423 ANTENNA__0890__A2
*1424 ANTENNA__0890__A3
*1425 ANTENNA__0890__A4
*1426 ANTENNA__0891__A1
*1427 ANTENNA__0891__A3
*1428 ANTENNA__0892__I
*1429 ANTENNA__0893__A1
*1430 ANTENNA__0893__A3
*1431 ANTENNA__0896__A1
*1432 ANTENNA__0896__A2
*1433 ANTENNA__0897__A1
*1434 ANTENNA__0898__A1
*1435 ANTENNA__0898__A2
*1436 ANTENNA__0899__A1
*1437 ANTENNA__0899__A2
*1438 ANTENNA__0899__A3
*1439 ANTENNA__0900__B2
*1440 ANTENNA__0901__A1
*1441 ANTENNA__0902__A2
*1442 ANTENNA__0902__A3
*1443 ANTENNA__0903__A2
*1444 ANTENNA__0903__B1
*1445 ANTENNA__0904__A1
*1446 ANTENNA__0904__A2
*1447 ANTENNA__0904__A3
*1448 ANTENNA__0905__A1
*1449 ANTENNA__0906__A2
*1450 ANTENNA__0906__B1
*1451 ANTENNA__0907__A1
*1452 ANTENNA__0907__A2
*1453 ANTENNA__0907__A3
*1454 ANTENNA__0908__A1
*1455 ANTENNA__0908__A2
*1456 ANTENNA__0909__A1
*1457 ANTENNA__0909__A2
*1458 ANTENNA__0909__A3
*1459 ANTENNA__0910__A2
*1460 ANTENNA__0910__B1
*1461 ANTENNA__0911__A1
*1462 ANTENNA__0911__A2
*1463 ANTENNA__0911__A3
*1464 ANTENNA__0912__A1
*1465 ANTENNA__0912__A2
*1466 ANTENNA__0912__A3
*1467 ANTENNA__0913__A2
*1468 ANTENNA__0913__B1
*1469 ANTENNA__0915__A1
*1470 ANTENNA__0915__A2
*1471 ANTENNA__0915__A3
*1472 ANTENNA__0916__A2
*1473 ANTENNA__0917__A1
*1474 ANTENNA__0917__A3
*1475 ANTENNA__0917__A4
*1476 ANTENNA__0919__A1
*1477 ANTENNA__0919__A2
*1478 ANTENNA__0919__A3
*1479 ANTENNA__0921__A1
*1480 ANTENNA__0921__A3
*1481 ANTENNA__0923__A1
*1482 ANTENNA__0923__A2
*1483 ANTENNA__0923__A3
*1484 ANTENNA__0924__A1
*1485 ANTENNA__0924__A2
*1486 ANTENNA__0924__A4
*1487 ANTENNA__0925__A2
*1488 ANTENNA__0927__A2
*1489 ANTENNA__0927__A3
*1490 ANTENNA__0928__A2
*1491 ANTENNA__0928__B
*1492 ANTENNA__0929__A1
*1493 ANTENNA__0930__A1
*1494 ANTENNA__0930__A2
*1495 ANTENNA__0930__A3
*1496 ANTENNA__0931__A2
*1497 ANTENNA__0931__B1
*1498 ANTENNA__0932__A1
*1499 ANTENNA__0933__A1
*1500 ANTENNA__0933__A2
*1501 ANTENNA__0933__A3
*1502 ANTENNA__0934__A2
*1503 ANTENNA__0934__B1
*1504 ANTENNA__0935__A1
*1505 ANTENNA__0935__A2
*1506 ANTENNA__0935__A3
*1507 ANTENNA__0936__A1
*1508 ANTENNA__0937__A2
*1509 ANTENNA__0937__B1
*1510 ANTENNA__0939__A3
*1511 ANTENNA__0939__A4
*1512 ANTENNA__0940__A1
*1513 ANTENNA__0940__A2
*1514 ANTENNA__0941__A2
*1515 ANTENNA__0942__A1
*1516 ANTENNA__0944__A2
*1517 ANTENNA__0944__B1
*1518 ANTENNA__0945__B1
*1519 ANTENNA__0946__A2
*1520 ANTENNA__0946__B1
*1521 ANTENNA__0947__A1
*1522 ANTENNA__0947__A3
*1523 ANTENNA__0948__A1
*1524 ANTENNA__0948__A3
*1525 ANTENNA__0952__A2
*1526 ANTENNA__0952__B1
*1527 ANTENNA__0953__A2
*1528 ANTENNA__0953__B1
*1529 ANTENNA__0954__A2
*1530 ANTENNA__0954__B1
*1531 ANTENNA__0955__A2
*1532 ANTENNA__0955__B1
*1533 ANTENNA__0956__A2
*1534 ANTENNA__0957__A2
*1535 ANTENNA__0958__A1
*1536 ANTENNA__0958__A3
*1537 ANTENNA__0958__A4
*1538 ANTENNA__0961__A1
*1539 ANTENNA__0961__A3
*1540 ANTENNA__0963__A1
*1541 ANTENNA__0963__A2
*1542 ANTENNA__0963__A4
*1543 ANTENNA__0964__A2
*1544 ANTENNA__0966__A2
*1545 ANTENNA__0966__B
*1546 ANTENNA__0967__A2
*1547 ANTENNA__0967__B1
*1548 ANTENNA__0968__A2
*1549 ANTENNA__0968__B1
*1550 ANTENNA__0969__A2
*1551 ANTENNA__0969__B1
*1552 ANTENNA__0971__A3
*1553 ANTENNA__0971__A4
*1554 ANTENNA__0972__A2
*1555 ANTENNA__0973__A2
*1556 ANTENNA__0974__A1
*1557 ANTENNA__0976__A2
*1558 ANTENNA__0976__B1
*1559 ANTENNA__0977__B1
*1560 ANTENNA__0978__A2
*1561 ANTENNA__0978__B1
*1562 ANTENNA__0979__A1
*1563 ANTENNA__0979__A3
*1564 ANTENNA__0980__A1
*1565 ANTENNA__0980__A3
*1566 ANTENNA__0984__A2
*1567 ANTENNA__0984__B1
*1568 ANTENNA__0985__A2
*1569 ANTENNA__0985__B1
*1570 ANTENNA__0986__A2
*1571 ANTENNA__0986__B1
*1572 ANTENNA__0987__A2
*1573 ANTENNA__0987__B1
*1574 ANTENNA__0988__A2
*1575 ANTENNA__0989__A2
*1576 ANTENNA__0990__A1
*1577 ANTENNA__0990__A3
*1578 ANTENNA__0990__A4
*1579 ANTENNA__0993__A1
*1580 ANTENNA__0993__A3
*1581 ANTENNA__0995__A1
*1582 ANTENNA__0995__A2
*1583 ANTENNA__0995__A4
*1584 ANTENNA__0996__A2
*1585 ANTENNA__0998__A2
*1586 ANTENNA__0998__B
*1587 ANTENNA__0999__A2
*1588 ANTENNA__0999__B1
*1589 ANTENNA__1000__A2
*1590 ANTENNA__1000__B1
*1591 ANTENNA__1001__A2
*1592 ANTENNA__1001__B1
*1593 ANTENNA__1003__A3
*1594 ANTENNA__1003__A4
*1595 ANTENNA__1004__A2
*1596 ANTENNA__1005__A2
*1597 ANTENNA__1006__A1
*1598 ANTENNA__1008__A2
*1599 ANTENNA__1008__B1
*1600 ANTENNA__1009__B1
*1601 ANTENNA__1010__A2
*1602 ANTENNA__1010__B1
*1603 ANTENNA__1011__A1
*1604 ANTENNA__1011__A3
*1605 ANTENNA__1012__A1
*1606 ANTENNA__1012__A3
*1607 ANTENNA__1016__A2
*1608 ANTENNA__1016__B1
*1609 ANTENNA__1017__A2
*1610 ANTENNA__1017__B1
*1611 ANTENNA__1018__A2
*1612 ANTENNA__1018__B1
*1613 ANTENNA__1019__A2
*1614 ANTENNA__1019__B1
*1615 ANTENNA__1020__A2
*1616 ANTENNA__1021__A2
*1617 ANTENNA__1022__A1
*1618 ANTENNA__1022__A3
*1619 ANTENNA__1022__A4
*1620 ANTENNA__1025__A1
*1621 ANTENNA__1025__A3
*1622 ANTENNA__1027__A1
*1623 ANTENNA__1027__A2
*1624 ANTENNA__1027__A4
*1625 ANTENNA__1028__A2
*1626 ANTENNA__1029__A1
*1627 ANTENNA__1030__A2
*1628 ANTENNA__1030__B
*1629 ANTENNA__1031__A2
*1630 ANTENNA__1031__B1
*1631 ANTENNA__1032__A2
*1632 ANTENNA__1032__B1
*1633 ANTENNA__1032__B2
*1634 ANTENNA__1033__A2
*1635 ANTENNA__1033__B1
*1636 ANTENNA__1035__A3
*1637 ANTENNA__1035__A4
*1638 ANTENNA__1036__A2
*1639 ANTENNA__1037__A2
*1640 ANTENNA__1038__A1
*1641 ANTENNA__1040__A2
*1642 ANTENNA__1041__A2
*1643 ANTENNA__1042__A1
*1644 ANTENNA__1043__A1
*1645 ANTENNA__1043__A2
*1646 ANTENNA__1043__A3
*1647 ANTENNA__1043__A4
*1648 ANTENNA__1044__A1
*1649 ANTENNA__1044__A3
*1650 ANTENNA__1045__A3
*1651 ANTENNA__1046__A2
*1652 ANTENNA__1046__B1
*1653 ANTENNA__1047__A2
*1654 ANTENNA__1047__B1
*1655 ANTENNA__1050__A1
*1656 ANTENNA__1050__A2
*1657 ANTENNA__1050__A3
*1658 ANTENNA__1051__A1
*1659 ANTENNA__1051__A3
*1660 ANTENNA__1052__A2
*1661 ANTENNA__1052__B1
*1662 ANTENNA__1053__C
*1663 ANTENNA__1055__A1
*1664 ANTENNA__1055__A2
*1665 ANTENNA__1055__A3
*1666 ANTENNA__1056__A1
*1667 ANTENNA__1056__A3
*1668 ANTENNA__1057__A2
*1669 ANTENNA__1057__B1
*1670 ANTENNA__1061__A2
*1671 ANTENNA__1062__A2
*1672 ANTENNA__1062__B1
*1673 ANTENNA__1063__A2
*1674 ANTENNA__1064__A1
*1675 ANTENNA__1065__A1
*1676 ANTENNA__1065__A3
*1677 ANTENNA__1067__A1
*1678 ANTENNA__1067__A2
*1679 ANTENNA__1067__A4
*1680 ANTENNA__1068__A1
*1681 ANTENNA__1068__A3
*1682 ANTENNA__1069__A1
*1683 ANTENNA__1069__A2
*1684 ANTENNA__1070__A1
*1685 ANTENNA__1070__A2
*1686 ANTENNA__1071__A2
*1687 ANTENNA__1071__B1
*1688 ANTENNA__1073__A1
*1689 ANTENNA__1073__A2
*1690 ANTENNA__1073__A3
*1691 ANTENNA__1074__A1
*1692 ANTENNA__1075__A2
*1693 ANTENNA__1075__B1
*1694 ANTENNA__1076__A2
*1695 ANTENNA__1078__A2
*1696 ANTENNA__1078__B1
*1697 ANTENNA__1082__A2
*1698 ANTENNA__1082__B1
*1699 ANTENNA__1083__A2
*1700 ANTENNA__1083__B1
*1701 ANTENNA__1085__A1
*1702 ANTENNA__1085__A2
*1703 ANTENNA__1086__B1
*1704 ANTENNA__1087__A2
*1705 ANTENNA__1087__B1
*1706 ANTENNA__1090__A1
*1707 ANTENNA__1090__A3
*1708 ANTENNA__1091__A2
*1709 ANTENNA__1091__B1
*1710 ANTENNA__1092__A2
*1711 ANTENNA__1092__B
*1712 ANTENNA__1093__A2
*1713 ANTENNA__1094__A1
*1714 ANTENNA__1094__A2
*1715 ANTENNA__1094__A3
*1716 ANTENNA__1094__A4
*1717 ANTENNA__1095__B1
*1718 ANTENNA__1096__A1
*1719 ANTENNA__1097__A1
*1720 ANTENNA__1098__A1
*1721 ANTENNA__1098__A2
*1722 ANTENNA__1098__B1
*1723 ANTENNA__1099__A1
*1724 ANTENNA__1099__A2
*1725 ANTENNA__1101__A2
*1726 ANTENNA__1102__A2
*1727 ANTENNA__1102__B1