*SPEF "ieee 1481-1999"
*DESIGN "user_project_wrapper"
*DATE "11:11:11 Fri 11 11, 1111"
*VENDOR "OpenRCX"
*PROGRAM "Parallel Extraction"
*VERSION "1.0"
*DESIGN_FLOW "NAME_SCOPE LOCAL" "PIN_CAP NONE"
*DIVIDER /
*DELIMITER :
*BUS_DELIMITER []
*T_UNIT 1 NS
*C_UNIT 1 PF
*R_UNIT 1 OHM
*L_UNIT 1 HENRY

*NAME_MAP
*1 io_in[0]
*2 io_in[10]
*3 io_in[11]
*4 io_in[12]
*5 io_in[13]
*6 io_in[14]
*7 io_in[15]
*8 io_in[16]
*9 io_in[17]
*10 io_in[18]
*11 io_in[19]
*12 io_in[1]
*13 io_in[20]
*14 io_in[21]
*15 io_in[22]
*16 io_in[23]
*17 io_in[24]
*18 io_in[25]
*19 io_in[26]
*20 io_in[27]
*21 io_in[28]
*22 io_in[29]
*23 io_in[2]
*24 io_in[30]
*25 io_in[31]
*26 io_in[32]
*27 io_in[33]
*28 io_in[34]
*29 io_in[35]
*30 io_in[36]
*31 io_in[37]
*32 io_in[3]
*33 io_in[4]
*34 io_in[5]
*35 io_in[6]
*36 io_in[7]
*37 io_in[8]
*38 io_in[9]
*39 io_oeb[0]
*40 io_oeb[10]
*41 io_oeb[11]
*42 io_oeb[12]
*43 io_oeb[13]
*44 io_oeb[14]
*45 io_oeb[15]
*46 io_oeb[16]
*47 io_oeb[17]
*48 io_oeb[18]
*49 io_oeb[19]
*50 io_oeb[1]
*51 io_oeb[20]
*52 io_oeb[21]
*53 io_oeb[22]
*54 io_oeb[23]
*55 io_oeb[24]
*56 io_oeb[25]
*57 io_oeb[26]
*58 io_oeb[27]
*59 io_oeb[28]
*60 io_oeb[29]
*61 io_oeb[2]
*62 io_oeb[30]
*63 io_oeb[31]
*64 io_oeb[32]
*65 io_oeb[33]
*66 io_oeb[34]
*67 io_oeb[35]
*68 io_oeb[36]
*69 io_oeb[37]
*70 io_oeb[3]
*71 io_oeb[4]
*72 io_oeb[5]
*73 io_oeb[6]
*74 io_oeb[7]
*75 io_oeb[8]
*76 io_oeb[9]
*77 io_out[0]
*78 io_out[10]
*79 io_out[11]
*80 io_out[12]
*81 io_out[13]
*82 io_out[14]
*83 io_out[15]
*84 io_out[16]
*85 io_out[17]
*86 io_out[18]
*87 io_out[19]
*88 io_out[1]
*89 io_out[20]
*90 io_out[21]
*91 io_out[22]
*92 io_out[23]
*93 io_out[24]
*94 io_out[25]
*95 io_out[26]
*96 io_out[27]
*97 io_out[28]
*98 io_out[29]
*99 io_out[2]
*100 io_out[30]
*101 io_out[31]
*102 io_out[32]
*103 io_out[33]
*104 io_out[34]
*105 io_out[35]
*106 io_out[36]
*107 io_out[37]
*108 io_out[3]
*109 io_out[4]
*110 io_out[5]
*111 io_out[6]
*112 io_out[7]
*113 io_out[8]
*114 io_out[9]
*115 la_data_in[0]
*116 la_data_in[10]
*117 la_data_in[11]
*118 la_data_in[12]
*119 la_data_in[13]
*120 la_data_in[14]
*121 la_data_in[15]
*122 la_data_in[16]
*123 la_data_in[17]
*124 la_data_in[18]
*125 la_data_in[19]
*126 la_data_in[1]
*127 la_data_in[20]
*128 la_data_in[21]
*129 la_data_in[22]
*130 la_data_in[23]
*131 la_data_in[24]
*132 la_data_in[25]
*133 la_data_in[26]
*134 la_data_in[27]
*135 la_data_in[28]
*136 la_data_in[29]
*137 la_data_in[2]
*138 la_data_in[30]
*139 la_data_in[31]
*140 la_data_in[32]
*141 la_data_in[33]
*142 la_data_in[34]
*143 la_data_in[35]
*144 la_data_in[36]
*145 la_data_in[37]
*146 la_data_in[38]
*147 la_data_in[39]
*148 la_data_in[3]
*149 la_data_in[40]
*150 la_data_in[41]
*151 la_data_in[42]
*152 la_data_in[43]
*153 la_data_in[44]
*154 la_data_in[45]
*155 la_data_in[46]
*156 la_data_in[47]
*157 la_data_in[48]
*158 la_data_in[49]
*159 la_data_in[4]
*160 la_data_in[50]
*161 la_data_in[51]
*162 la_data_in[52]
*163 la_data_in[53]
*164 la_data_in[54]
*165 la_data_in[55]
*166 la_data_in[56]
*167 la_data_in[57]
*168 la_data_in[58]
*169 la_data_in[59]
*170 la_data_in[5]
*171 la_data_in[60]
*172 la_data_in[61]
*173 la_data_in[62]
*174 la_data_in[63]
*175 la_data_in[6]
*176 la_data_in[7]
*177 la_data_in[8]
*178 la_data_in[9]
*179 la_data_out[0]
*180 la_data_out[10]
*181 la_data_out[11]
*182 la_data_out[12]
*183 la_data_out[13]
*184 la_data_out[14]
*185 la_data_out[15]
*186 la_data_out[16]
*187 la_data_out[17]
*188 la_data_out[18]
*189 la_data_out[19]
*190 la_data_out[1]
*191 la_data_out[20]
*192 la_data_out[21]
*193 la_data_out[22]
*194 la_data_out[23]
*195 la_data_out[24]
*196 la_data_out[25]
*197 la_data_out[26]
*198 la_data_out[27]
*199 la_data_out[28]
*200 la_data_out[29]
*201 la_data_out[2]
*202 la_data_out[30]
*203 la_data_out[31]
*204 la_data_out[32]
*205 la_data_out[33]
*206 la_data_out[34]
*207 la_data_out[35]
*208 la_data_out[36]
*209 la_data_out[37]
*210 la_data_out[38]
*211 la_data_out[39]
*212 la_data_out[3]
*213 la_data_out[40]
*214 la_data_out[41]
*215 la_data_out[42]
*216 la_data_out[43]
*217 la_data_out[44]
*218 la_data_out[45]
*219 la_data_out[46]
*220 la_data_out[47]
*221 la_data_out[48]
*222 la_data_out[49]
*223 la_data_out[4]
*224 la_data_out[50]
*225 la_data_out[51]
*226 la_data_out[52]
*227 la_data_out[53]
*228 la_data_out[54]
*229 la_data_out[55]
*230 la_data_out[56]
*231 la_data_out[57]
*232 la_data_out[58]
*233 la_data_out[59]
*234 la_data_out[5]
*235 la_data_out[60]
*236 la_data_out[61]
*237 la_data_out[62]
*238 la_data_out[63]
*239 la_data_out[6]
*240 la_data_out[7]
*241 la_data_out[8]
*242 la_data_out[9]
*243 la_oenb[0]
*244 la_oenb[10]
*245 la_oenb[11]
*246 la_oenb[12]
*247 la_oenb[13]
*248 la_oenb[14]
*249 la_oenb[15]
*250 la_oenb[16]
*251 la_oenb[17]
*252 la_oenb[18]
*253 la_oenb[19]
*254 la_oenb[1]
*255 la_oenb[20]
*256 la_oenb[21]
*257 la_oenb[22]
*258 la_oenb[23]
*259 la_oenb[24]
*260 la_oenb[25]
*261 la_oenb[26]
*262 la_oenb[27]
*263 la_oenb[28]
*264 la_oenb[29]
*265 la_oenb[2]
*266 la_oenb[30]
*267 la_oenb[31]
*268 la_oenb[32]
*269 la_oenb[33]
*270 la_oenb[34]
*271 la_oenb[35]
*272 la_oenb[36]
*273 la_oenb[37]
*274 la_oenb[38]
*275 la_oenb[39]
*276 la_oenb[3]
*277 la_oenb[40]
*278 la_oenb[41]
*279 la_oenb[42]
*280 la_oenb[43]
*281 la_oenb[44]
*282 la_oenb[45]
*283 la_oenb[46]
*284 la_oenb[47]
*285 la_oenb[48]
*286 la_oenb[49]
*287 la_oenb[4]
*288 la_oenb[50]
*289 la_oenb[51]
*290 la_oenb[52]
*291 la_oenb[53]
*292 la_oenb[54]
*293 la_oenb[55]
*294 la_oenb[56]
*295 la_oenb[57]
*296 la_oenb[58]
*297 la_oenb[59]
*298 la_oenb[5]
*299 la_oenb[60]
*300 la_oenb[61]
*301 la_oenb[62]
*302 la_oenb[63]
*303 la_oenb[6]
*304 la_oenb[7]
*305 la_oenb[8]
*306 la_oenb[9]
*307 user_clock2
*308 user_irq[0]
*309 user_irq[1]
*310 user_irq[2]
*313 wb_clk_i
*314 wb_rst_i
*315 wbs_ack_o
*316 wbs_adr_i[0]
*317 wbs_adr_i[10]
*318 wbs_adr_i[11]
*319 wbs_adr_i[12]
*320 wbs_adr_i[13]
*321 wbs_adr_i[14]
*322 wbs_adr_i[15]
*323 wbs_adr_i[16]
*324 wbs_adr_i[17]
*325 wbs_adr_i[18]
*326 wbs_adr_i[19]
*327 wbs_adr_i[1]
*328 wbs_adr_i[20]
*329 wbs_adr_i[21]
*330 wbs_adr_i[22]
*331 wbs_adr_i[23]
*332 wbs_adr_i[24]
*333 wbs_adr_i[25]
*334 wbs_adr_i[26]
*335 wbs_adr_i[27]
*336 wbs_adr_i[28]
*337 wbs_adr_i[29]
*338 wbs_adr_i[2]
*339 wbs_adr_i[30]
*340 wbs_adr_i[31]
*341 wbs_adr_i[3]
*342 wbs_adr_i[4]
*343 wbs_adr_i[5]
*344 wbs_adr_i[6]
*345 wbs_adr_i[7]
*346 wbs_adr_i[8]
*347 wbs_adr_i[9]
*348 wbs_cyc_i
*349 wbs_dat_i[0]
*350 wbs_dat_i[10]
*351 wbs_dat_i[11]
*352 wbs_dat_i[12]
*353 wbs_dat_i[13]
*354 wbs_dat_i[14]
*355 wbs_dat_i[15]
*356 wbs_dat_i[16]
*357 wbs_dat_i[17]
*358 wbs_dat_i[18]
*359 wbs_dat_i[19]
*360 wbs_dat_i[1]
*361 wbs_dat_i[20]
*362 wbs_dat_i[21]
*363 wbs_dat_i[22]
*364 wbs_dat_i[23]
*365 wbs_dat_i[24]
*366 wbs_dat_i[25]
*367 wbs_dat_i[26]
*368 wbs_dat_i[27]
*369 wbs_dat_i[28]
*370 wbs_dat_i[29]
*371 wbs_dat_i[2]
*372 wbs_dat_i[30]
*373 wbs_dat_i[31]
*374 wbs_dat_i[3]
*375 wbs_dat_i[4]
*376 wbs_dat_i[5]
*377 wbs_dat_i[6]
*378 wbs_dat_i[7]
*379 wbs_dat_i[8]
*380 wbs_dat_i[9]
*381 wbs_dat_o[0]
*382 wbs_dat_o[10]
*383 wbs_dat_o[11]
*384 wbs_dat_o[12]
*385 wbs_dat_o[13]
*386 wbs_dat_o[14]
*387 wbs_dat_o[15]
*388 wbs_dat_o[16]
*389 wbs_dat_o[17]
*390 wbs_dat_o[18]
*391 wbs_dat_o[19]
*392 wbs_dat_o[1]
*393 wbs_dat_o[20]
*394 wbs_dat_o[21]
*395 wbs_dat_o[22]
*396 wbs_dat_o[23]
*397 wbs_dat_o[24]
*398 wbs_dat_o[25]
*399 wbs_dat_o[26]
*400 wbs_dat_o[27]
*401 wbs_dat_o[28]
*402 wbs_dat_o[29]
*403 wbs_dat_o[2]
*404 wbs_dat_o[30]
*405 wbs_dat_o[31]
*406 wbs_dat_o[3]
*407 wbs_dat_o[4]
*408 wbs_dat_o[5]
*409 wbs_dat_o[6]
*410 wbs_dat_o[7]
*411 wbs_dat_o[8]
*412 wbs_dat_o[9]
*413 wbs_sel_i[0]
*414 wbs_sel_i[1]
*415 wbs_sel_i[2]
*416 wbs_sel_i[3]
*417 wbs_stb_i
*418 wbs_we_i
*419 i2c_rst_n
*420 i2cm_clk_i
*421 i2cm_clk_o
*422 i2cm_clk_oen
*423 i2cm_data_i
*424 i2cm_data_o
*425 i2cm_data_oen
*426 i2cm_intr_o
*427 pulse1m_mclk
*428 reg_peri_ack
*429 reg_peri_addr\[0\]
*430 reg_peri_addr\[10\]
*431 reg_peri_addr\[1\]
*432 reg_peri_addr\[2\]
*433 reg_peri_addr\[3\]
*434 reg_peri_addr\[4\]
*435 reg_peri_addr\[5\]
*436 reg_peri_addr\[6\]
*437 reg_peri_addr\[7\]
*438 reg_peri_addr\[8\]
*439 reg_peri_addr\[9\]
*440 reg_peri_be\[0\]
*441 reg_peri_be\[1\]
*442 reg_peri_be\[2\]
*443 reg_peri_be\[3\]
*444 reg_peri_cs
*445 reg_peri_rdata\[0\]
*446 reg_peri_rdata\[10\]
*447 reg_peri_rdata\[11\]
*448 reg_peri_rdata\[12\]
*449 reg_peri_rdata\[13\]
*450 reg_peri_rdata\[14\]
*451 reg_peri_rdata\[15\]
*452 reg_peri_rdata\[16\]
*453 reg_peri_rdata\[17\]
*454 reg_peri_rdata\[18\]
*455 reg_peri_rdata\[19\]
*456 reg_peri_rdata\[1\]
*457 reg_peri_rdata\[20\]
*458 reg_peri_rdata\[21\]
*459 reg_peri_rdata\[22\]
*460 reg_peri_rdata\[23\]
*461 reg_peri_rdata\[24\]
*462 reg_peri_rdata\[25\]
*463 reg_peri_rdata\[26\]
*464 reg_peri_rdata\[27\]
*465 reg_peri_rdata\[28\]
*466 reg_peri_rdata\[29\]
*467 reg_peri_rdata\[2\]
*468 reg_peri_rdata\[30\]
*469 reg_peri_rdata\[31\]
*470 reg_peri_rdata\[3\]
*471 reg_peri_rdata\[4\]
*472 reg_peri_rdata\[5\]
*473 reg_peri_rdata\[6\]
*474 reg_peri_rdata\[7\]
*475 reg_peri_rdata\[8\]
*476 reg_peri_rdata\[9\]
*477 reg_peri_wdata\[0\]
*478 reg_peri_wdata\[10\]
*479 reg_peri_wdata\[11\]
*480 reg_peri_wdata\[12\]
*481 reg_peri_wdata\[13\]
*482 reg_peri_wdata\[14\]
*483 reg_peri_wdata\[15\]
*484 reg_peri_wdata\[16\]
*485 reg_peri_wdata\[17\]
*486 reg_peri_wdata\[18\]
*487 reg_peri_wdata\[19\]
*488 reg_peri_wdata\[1\]
*489 reg_peri_wdata\[20\]
*490 reg_peri_wdata\[21\]
*491 reg_peri_wdata\[22\]
*492 reg_peri_wdata\[23\]
*493 reg_peri_wdata\[24\]
*494 reg_peri_wdata\[25\]
*495 reg_peri_wdata\[26\]
*496 reg_peri_wdata\[27\]
*497 reg_peri_wdata\[28\]
*498 reg_peri_wdata\[29\]
*499 reg_peri_wdata\[2\]
*500 reg_peri_wdata\[30\]
*501 reg_peri_wdata\[31\]
*502 reg_peri_wdata\[3\]
*503 reg_peri_wdata\[4\]
*504 reg_peri_wdata\[5\]
*505 reg_peri_wdata\[6\]
*506 reg_peri_wdata\[7\]
*507 reg_peri_wdata\[8\]
*508 reg_peri_wdata\[9\]
*509 reg_peri_wr
*510 rtc_clk
*511 rtc_intr
*512 sspim_rst_n
*513 sspim_sck
*514 sspim_si
*515 sspim_so
*516 sspim_ssn\[0\]
*517 sspim_ssn\[1\]
*518 sspim_ssn\[2\]
*519 sspim_ssn\[3\]
*520 uart_rst_n\[0\]
*521 uart_rst_n\[1\]
*522 uart_rxd\[0\]
*523 uart_rxd\[1\]
*524 uart_txd\[0\]
*525 uart_txd\[1\]
*526 usb_clk
*527 usb_dn_i
*528 usb_dn_o
*529 usb_dp_i
*530 usb_dp_o
*531 usb_intr_o
*532 usb_oen
*533 usb_rst_n
*536 temp_sensor
*537 u_peri
*538 u_pinmux
*539 u_uart_i2c_usb_spi
*540 wb_buttons_leds

*PORTS
io_in[0] I
io_in[10] I
io_in[11] I
io_in[12] I
io_in[13] I
io_in[14] I
io_in[15] I
io_in[16] I
io_in[17] I
io_in[18] I
io_in[19] I
io_in[1] I
io_in[20] I
io_in[21] I
io_in[22] I
io_in[23] I
io_in[24] I
io_in[25] I
io_in[26] I
io_in[27] I
io_in[28] I
io_in[29] I
io_in[2] I
io_in[30] I
io_in[31] I
io_in[32] I
io_in[33] I
io_in[34] I
io_in[35] I
io_in[36] I
io_in[37] I
io_in[3] I
io_in[4] I
io_in[5] I
io_in[6] I
io_in[7] I
io_in[8] I
io_in[9] I
io_oeb[0] O
io_oeb[10] O
io_oeb[11] O
io_oeb[12] O
io_oeb[13] O
io_oeb[14] O
io_oeb[15] O
io_oeb[16] O
io_oeb[17] O
io_oeb[18] O
io_oeb[19] O
io_oeb[1] O
io_oeb[20] O
io_oeb[21] O
io_oeb[22] O
io_oeb[23] O
io_oeb[24] O
io_oeb[25] O
io_oeb[26] O
io_oeb[27] O
io_oeb[28] O
io_oeb[29] O
io_oeb[2] O
io_oeb[30] O
io_oeb[31] O
io_oeb[32] O
io_oeb[33] O
io_oeb[34] O
io_oeb[35] O
io_oeb[36] O
io_oeb[37] O
io_oeb[3] O
io_oeb[4] O
io_oeb[5] O
io_oeb[6] O
io_oeb[7] O
io_oeb[8] O
io_oeb[9] O
io_out[0] O
io_out[10] O
io_out[11] O
io_out[12] O
io_out[13] O
io_out[14] O
io_out[15] O
io_out[16] O
io_out[17] O
io_out[18] O
io_out[19] O
io_out[1] O
io_out[20] O
io_out[21] O
io_out[22] O
io_out[23] O
io_out[24] O
io_out[25] O
io_out[26] O
io_out[27] O
io_out[28] O
io_out[29] O
io_out[2] O
io_out[30] O
io_out[31] O
io_out[32] O
io_out[33] O
io_out[34] O
io_out[35] O
io_out[36] O
io_out[37] O
io_out[3] O
io_out[4] O
io_out[5] O
io_out[6] O
io_out[7] O
io_out[8] O
io_out[9] O
la_data_in[0] I
la_data_in[10] I
la_data_in[11] I
la_data_in[12] I
la_data_in[13] I
la_data_in[14] I
la_data_in[15] I
la_data_in[16] I
la_data_in[17] I
la_data_in[18] I
la_data_in[19] I
la_data_in[1] I
la_data_in[20] I
la_data_in[21] I
la_data_in[22] I
la_data_in[23] I
la_data_in[24] I
la_data_in[25] I
la_data_in[26] I
la_data_in[27] I
la_data_in[28] I
la_data_in[29] I
la_data_in[2] I
la_data_in[30] I
la_data_in[31] I
la_data_in[32] I
la_data_in[33] I
la_data_in[34] I
la_data_in[35] I
la_data_in[36] I
la_data_in[37] I
la_data_in[38] I
la_data_in[39] I
la_data_in[3] I
la_data_in[40] I
la_data_in[41] I
la_data_in[42] I
la_data_in[43] I
la_data_in[44] I
la_data_in[45] I
la_data_in[46] I
la_data_in[47] I
la_data_in[48] I
la_data_in[49] I
la_data_in[4] I
la_data_in[50] I
la_data_in[51] I
la_data_in[52] I
la_data_in[53] I
la_data_in[54] I
la_data_in[55] I
la_data_in[56] I
la_data_in[57] I
la_data_in[58] I
la_data_in[59] I
la_data_in[5] I
la_data_in[60] I
la_data_in[61] I
la_data_in[62] I
la_data_in[63] I
la_data_in[6] I
la_data_in[7] I
la_data_in[8] I
la_data_in[9] I
la_data_out[0] O
la_data_out[10] O
la_data_out[11] O
la_data_out[12] O
la_data_out[13] O
la_data_out[14] O
la_data_out[15] O
la_data_out[16] O
la_data_out[17] O
la_data_out[18] O
la_data_out[19] O
la_data_out[1] O
la_data_out[20] O
la_data_out[21] O
la_data_out[22] O
la_data_out[23] O
la_data_out[24] O
la_data_out[25] O
la_data_out[26] O
la_data_out[27] O
la_data_out[28] O
la_data_out[29] O
la_data_out[2] O
la_data_out[30] O
la_data_out[31] O
la_data_out[32] O
la_data_out[33] O
la_data_out[34] O
la_data_out[35] O
la_data_out[36] O
la_data_out[37] O
la_data_out[38] O
la_data_out[39] O
la_data_out[3] O
la_data_out[40] O
la_data_out[41] O
la_data_out[42] O
la_data_out[43] O
la_data_out[44] O
la_data_out[45] O
la_data_out[46] O
la_data_out[47] O
la_data_out[48] O
la_data_out[49] O
la_data_out[4] O
la_data_out[50] O
la_data_out[51] O
la_data_out[52] O
la_data_out[53] O
la_data_out[54] O
la_data_out[55] O
la_data_out[56] O
la_data_out[57] O
la_data_out[58] O
la_data_out[59] O
la_data_out[5] O
la_data_out[60] O
la_data_out[61] O
la_data_out[62] O
la_data_out[63] O
la_data_out[6] O
la_data_out[7] O
la_data_out[8] O
la_data_out[9] O
la_oenb[0] I
la_oenb[10] I
la_oenb[11] I
la_oenb[12] I
la_oenb[13] I
la_oenb[14] I
la_oenb[15] I
la_oenb[16] I
la_oenb[17] I
la_oenb[18] I
la_oenb[19] I
la_oenb[1] I
la_oenb[20] I
la_oenb[21] I
la_oenb[22] I
la_oenb[23] I
la_oenb[24] I
la_oenb[25] I
la_oenb[26] I
la_oenb[27] I
la_oenb[28] I
la_oenb[29] I
la_oenb[2] I
la_oenb[30] I
la_oenb[31] I
la_oenb[32] I
la_oenb[33] I
la_oenb[34] I
la_oenb[35] I
la_oenb[36] I
la_oenb[37] I
la_oenb[38] I
la_oenb[39] I
la_oenb[3] I
la_oenb[40] I
la_oenb[41] I
la_oenb[42] I
la_oenb[43] I
la_oenb[44] I
la_oenb[45] I
la_oenb[46] I
la_oenb[47] I
la_oenb[48] I
la_oenb[49] I
la_oenb[4] I
la_oenb[50] I
la_oenb[51] I
la_oenb[52] I
la_oenb[53] I
la_oenb[54] I
la_oenb[55] I
la_oenb[56] I
la_oenb[57] I
la_oenb[58] I
la_oenb[59] I
la_oenb[5] I
la_oenb[60] I
la_oenb[61] I
la_oenb[62] I
la_oenb[63] I
la_oenb[6] I
la_oenb[7] I
la_oenb[8] I
la_oenb[9] I
user_clock2 I
user_irq[0] O
user_irq[1] O
user_irq[2] O
wb_clk_i I
wb_rst_i I
wbs_ack_o O
wbs_adr_i[0] I
wbs_adr_i[10] I
wbs_adr_i[11] I
wbs_adr_i[12] I
wbs_adr_i[13] I
wbs_adr_i[14] I
wbs_adr_i[15] I
wbs_adr_i[16] I
wbs_adr_i[17] I
wbs_adr_i[18] I
wbs_adr_i[19] I
wbs_adr_i[1] I
wbs_adr_i[20] I
wbs_adr_i[21] I
wbs_adr_i[22] I
wbs_adr_i[23] I
wbs_adr_i[24] I
wbs_adr_i[25] I
wbs_adr_i[26] I
wbs_adr_i[27] I
wbs_adr_i[28] I
wbs_adr_i[29] I
wbs_adr_i[2] I
wbs_adr_i[30] I
wbs_adr_i[31] I
wbs_adr_i[3] I
wbs_adr_i[4] I
wbs_adr_i[5] I
wbs_adr_i[6] I
wbs_adr_i[7] I
wbs_adr_i[8] I
wbs_adr_i[9] I
wbs_cyc_i I
wbs_dat_i[0] I
wbs_dat_i[10] I
wbs_dat_i[11] I
wbs_dat_i[12] I
wbs_dat_i[13] I
wbs_dat_i[14] I
wbs_dat_i[15] I
wbs_dat_i[16] I
wbs_dat_i[17] I
wbs_dat_i[18] I
wbs_dat_i[19] I
wbs_dat_i[1] I
wbs_dat_i[20] I
wbs_dat_i[21] I
wbs_dat_i[22] I
wbs_dat_i[23] I
wbs_dat_i[24] I
wbs_dat_i[25] I
wbs_dat_i[26] I
wbs_dat_i[27] I
wbs_dat_i[28] I
wbs_dat_i[29] I
wbs_dat_i[2] I
wbs_dat_i[30] I
wbs_dat_i[31] I
wbs_dat_i[3] I
wbs_dat_i[4] I
wbs_dat_i[5] I
wbs_dat_i[6] I
wbs_dat_i[7] I
wbs_dat_i[8] I
wbs_dat_i[9] I
wbs_dat_o[0] O
wbs_dat_o[10] O
wbs_dat_o[11] O
wbs_dat_o[12] O
wbs_dat_o[13] O
wbs_dat_o[14] O
wbs_dat_o[15] O
wbs_dat_o[16] O
wbs_dat_o[17] O
wbs_dat_o[18] O
wbs_dat_o[19] O
wbs_dat_o[1] O
wbs_dat_o[20] O
wbs_dat_o[21] O
wbs_dat_o[22] O
wbs_dat_o[23] O
wbs_dat_o[24] O
wbs_dat_o[25] O
wbs_dat_o[26] O
wbs_dat_o[27] O
wbs_dat_o[28] O
wbs_dat_o[29] O
wbs_dat_o[2] O
wbs_dat_o[30] O
wbs_dat_o[31] O
wbs_dat_o[3] O
wbs_dat_o[4] O
wbs_dat_o[5] O
wbs_dat_o[6] O
wbs_dat_o[7] O
wbs_dat_o[8] O
wbs_dat_o[9] O
wbs_sel_i[0] I
wbs_sel_i[1] I
wbs_sel_i[2] I
wbs_sel_i[3] I
wbs_stb_i I
wbs_we_i I

*D_NET *14 0.47759
*CONN
*P io_in[21] I
*I *538:digital_io_in[21] I *D pinmux_top
*CAP
1 io_in[21] 0.0007729
2 *538:digital_io_in[21] 0.00102332
3 *14:13 0.042479
4 *14:11 0.0414557
5 *14:9 0.0199235
6 *14:7 0.0206964
7 *14:9 *52:13 0.0794904
8 *14:13 *15:13 0.271749
*RES
1 io_in[21] *14:7 11 
2 *14:7 *14:9 280.28 
3 *14:9 *14:11 4.5 
4 *14:11 *14:13 695.864 
5 *14:13 *538:digital_io_in[21] 10.792 
*END

*D_NET *15 0.638558
*CONN
*P io_in[22] I
*I *538:digital_io_in[22] I *D pinmux_top
*CAP
1 io_in[22] 0.000724412
2 *538:digital_io_in[22] 0.000957339
3 *15:13 0.00294395
4 *15:11 0.00198661
5 *15:9 0.00873011
6 *15:7 0.00945452
7 *15:9 *52:13 0.0629647
8 *15:13 *16:13 0.279047
9 *14:13 *15:13 0.271749
*RES
1 io_in[22] *15:7 10.584 
2 *15:7 *15:9 157.144 
3 *15:9 *15:11 4.5 
4 *15:11 *15:13 717.496 
5 *15:13 *538:digital_io_in[22] 10.584 
*END

*D_NET *16 0.390958
*CONN
*P io_in[23] I
*I *538:digital_io_in[23] I *D pinmux_top
*CAP
1 io_in[23] 0.0031079
2 *538:digital_io_in[23] 0.000913037
3 *16:13 0.0460702
4 *16:11 0.0451571
5 *16:9 0.0031079
6 *16:9 *53:13 0.0135547
7 *16:13 *54:11 0
8 *15:13 *16:13 0.279047
*RES
1 io_in[23] *16:9 47.504 
2 *16:9 *16:11 4.5 
3 *16:11 *16:13 735.8 
4 *16:13 *538:digital_io_in[23] 10.376 
*END

*D_NET *17 0.182169
*CONN
*P io_in[24] I
*I *538:digital_io_in[24] I *D pinmux_top
*CAP
1 io_in[24] 0.00747533
2 *538:digital_io_in[24] 0.00141024
3 *17:9 0.0836093
4 *17:7 0.0821991
5 *17:5 0.00747533
*RES
1 io_in[24] *17:5 63.284 
2 *17:5 *17:7 4.5 
3 *17:7 *17:9 736.008 
4 *17:9 *538:digital_io_in[24] 14.952 
*END

*D_NET *18 0.261307
*CONN
*P io_in[25] I
*I *538:digital_io_in[25] I *D pinmux_top
*CAP
1 io_in[25] 0.00206585
2 *538:digital_io_in[25] 0.00709892
3 *18:11 0.00709892
4 *18:9 0.0591203
5 *18:7 0.0611861
6 *18:9 *60:9 0.124737
*RES
1 io_in[25] *18:7 20.984 
2 *18:7 *18:9 678.6 
3 *18:9 *18:11 4.5 
4 *18:11 *538:digital_io_in[25] 57.252 
*END

*D_NET *19 0.157367
*CONN
*P io_in[26] I
*I *538:digital_io_in[26] I *D pinmux_top
*CAP
1 io_in[26] 0.0041866
2 *538:digital_io_in[26] 0.0048923
3 *19:9 0.0744969
4 *19:7 0.0737912
*RES
1 io_in[26] *19:7 39.704 
2 *19:7 *19:9 621.192 
3 *19:9 *538:digital_io_in[26] 43.032 
*END

*D_NET *20 0.146025
*CONN
*P io_in[27] I
*I *538:digital_io_in[27] I *D pinmux_top
*CAP
1 io_in[27] 0.00346187
2 *538:digital_io_in[27] 0.00631314
3 *20:11 0.00631314
4 *20:9 0.0632374
5 *20:7 0.0666992
*RES
1 io_in[27] *20:7 27.224 
2 *20:7 *20:9 563.784 
3 *20:9 *20:11 4.5 
4 *20:11 *538:digital_io_in[27] 51.012 
*END

*D_NET *21 0.133437
*CONN
*P io_in[28] I
*I *538:digital_io_in[28] I *D pinmux_top
*CAP
1 io_in[28] 0.00393241
2 *538:digital_io_in[28] 0.00593103
3 *21:11 0.00593103
4 *21:9 0.0568549
5 *21:7 0.0607873
*RES
1 io_in[28] *21:7 30.344 
2 *21:7 *21:9 506.376 
3 *21:9 *21:11 4.5 
4 *21:11 *538:digital_io_in[28] 47.892 
*END

*D_NET *22 0.233374
*CONN
*P io_in[29] I
*I *538:digital_io_in[29] I *D pinmux_top
*CAP
1 io_in[29] 0.00236748
2 *538:digital_io_in[29] 0.00550482
3 *22:9 0.035762
4 *22:7 0.0326247
5 *22:7 *97:13 0.00856137
6 *22:9 *94:9 0.148553
*RES
1 io_in[29] *22:7 33.672 
2 *22:7 *22:9 448.968 
3 *22:9 *538:digital_io_in[29] 49.064 
*END

*D_NET *24 0.185314
*CONN
*P io_in[30] I
*I *538:digital_io_in[30] I *D pinmux_top
*CAP
1 io_in[30] 0.00399915
2 *538:digital_io_in[30] 0.00512273
3 *24:9 0.0343486
4 *24:7 0.033225
5 *24:9 *93:9 0.108618
*RES
1 io_in[30] *24:7 36.792 
2 *24:7 *24:9 391.56 
3 *24:9 *538:digital_io_in[30] 45.944 
*END

*D_NET *25 0.176667
*CONN
*P io_in[31] I
*I *538:digital_io_in[31] I *D pinmux_top
*CAP
1 io_in[31] 0.00525304
2 *538:digital_io_in[31] 0.000825749
3 *25:19 0.00454947
4 *25:9 0.0252989
5 *25:7 0.0268282
6 *25:9 *59:9 0.113911
7 *25:19 *65:9 0
8 *25:19 *102:9 0
*RES
1 io_in[31] *25:7 46.152 
2 *25:7 *25:9 329.576 
3 *25:9 *25:19 44.7 
4 *25:19 *538:digital_io_in[31] 5.668 
*END

*D_NET *26 0.13502
*CONN
*P io_in[32] I
*I *538:digital_io_in[32] I *D pinmux_top
*CAP
1 io_in[32] 0.00648547
2 *538:digital_io_in[32] 0.00334144
3 *26:9 0.0240973
4 *26:7 0.0207559
5 *26:5 0.00648547
6 *538:digital_io_in[32] *65:9 0
7 *538:digital_io_in[32] *102:9 0
8 *26:9 *58:9 0.0738548
*RES
1 io_in[32] *26:5 51.012 
2 *26:5 *26:7 4.5 
3 *26:7 *26:9 272.792 
4 *26:9 *538:digital_io_in[32] 40.384 
*END

*D_NET *27 0.0674105
*CONN
*P io_in[33] I
*I *538:digital_io_in[33] I *D pinmux_top
*CAP
1 io_in[33] 0.00253399
2 *538:digital_io_in[33] 0.0063942
3 *27:11 0.0063942
4 *27:9 0.0246491
5 *27:7 0.0271831
6 *27:9 io_oeb[23] 0.000255997
*RES
1 io_in[33] *27:7 24.104 
2 *27:7 *27:9 219.336 
3 *27:9 *27:11 4.5 
4 *27:11 *538:digital_io_in[33] 54.132 
*END

*D_NET *28 0.0550736
*CONN
*P io_in[34] I
*I *538:digital_io_in[34] I *D pinmux_top
*CAP
1 io_in[34] 0.00709782
2 *538:digital_io_in[34] 0.00235192
3 *28:9 0.020439
4 *28:7 0.0180871
5 *28:5 0.00709782
*RES
1 io_in[34] *28:5 57.044 
2 *28:5 *28:7 4.5 
3 *28:7 *28:9 159.224 
4 *28:9 *538:digital_io_in[34] 33.104 
*END

*D_NET *29 0.0414531
*CONN
*P io_in[35] I
*I *538:digital_io_in[35] I *D pinmux_top
*CAP
1 io_in[35] 0.00287308
2 *538:digital_io_in[35] 0.0010394
3 *29:13 0.00628532
4 *29:9 0.0168141
5 *29:7 0.0144412
*RES
1 io_in[35] *29:7 27.224 
2 *29:7 *29:9 102.44 
3 *29:9 *29:13 49.948 
4 *29:13 *538:digital_io_in[35] 16.852 
*END

*D_NET *30 0.0393623
*CONN
*P io_in[36] I
*I *538:digital_io_in[36] I *D pinmux_top
*CAP
1 io_in[36] 0.000963607
2 *538:digital_io_in[36] 0.00779257
3 *30:11 0.00779257
4 *30:9 0.0019577
5 *30:7 0.00292131
6 *30:9 io_out[36] 0.00830896
7 *30:9 *66:9 0.00329099
8 *30:9 *104:9 0.00467541
9 *30:9 *105:9 0.00165919
*RES
1 io_in[36] *30:7 11.832 
2 *30:7 *30:9 47.112 
3 *30:9 *30:11 4.5 
4 *30:11 *538:digital_io_in[36] 66.404 
*END

*D_NET *31 0.0209822
*CONN
*P io_in[37] I
*I *538:digital_io_in[37] I *D pinmux_top
*CAP
1 io_in[37] 0.00202756
2 *538:digital_io_in[37] 0.00781518
3 *31:11 0.00984273
4 *31:11 io_out[37] 0.00129679
*RES
1 io_in[37] *31:11 26.42 
2 *31:11 *538:digital_io_in[37] 66.612 
*END

*D_NET *34 0.199554
*CONN
*P io_in[5] I
*I *540:buttons[0] I *D wb_buttons_leds
*CAP
1 io_in[5] 0.000999966
2 *540:buttons[0] 0
3 *34:17 0.00487047
4 *34:15 0.00518356
5 *34:9 0.0157367
6 *34:7 0.0164236
7 *34:9 *35:9 0.107873
8 *34:9 *113:5 0.0231709
9 *34:15 *35:17 0.00159241
10 *34:17 *35:17 0.0144608
11 *34:17 *72:12 0.00409494
12 *34:17 *73:8 0.00119339
13 *34:17 *73:10 0.00395405
*RES
1 io_in[5] *34:7 12.872 
2 *34:7 *34:9 269.464 
3 *34:9 *34:15 13.264 
4 *34:15 *34:17 81.848 
5 *34:17 *540:buttons[0] 4.5 
*END

*D_NET *35 0.177972
*CONN
*P io_in[6] I
*I *540:buttons[1] I *D wb_buttons_leds
*CAP
1 io_in[6] 0.000924918
2 *540:buttons[1] 0
3 *35:17 0.00239471
4 *35:9 0.0260951
5 *35:7 0.0246253
6 *35:17 *73:10 5.69054e-06
7 *34:9 *35:9 0.107873
8 *34:15 *35:17 0.00159241
9 *34:17 *35:17 0.0144608
*RES
1 io_in[6] *35:7 12.664 
2 *35:7 *35:9 342.888 
3 *35:9 *35:17 49.56 
4 *35:17 *540:buttons[1] 4.5 
*END

*D_NET *40 0.244256
*CONN
*P io_oeb[10] O
*I *540:xtal_clk_enb[1] O *D wb_buttons_leds
*CAP
1 io_oeb[10] 0.0010618
2 *540:xtal_clk_enb[1] 0.00226283
3 *40:21 0.0134509
4 *40:19 0.0157274
5 *40:13 0.0581114
6 *40:11 0.0570358
7 *40:11 *78:11 0.000483236
8 *40:11 *114:11 0.00639017
9 *40:13 *74:5 0.0117741
10 *40:13 *327:69 0.0238961
11 *40:21 io_oeb[9] 0.000261341
12 *40:21 *78:21 0.0269313
13 *40:21 *113:5 3.25039e-05
14 *40:21 *114:21 0.0268375
*RES
1 *540:xtal_clk_enb[1] *40:11 34.948 
2 *40:11 *40:13 508.248 
3 *40:13 *40:19 34.064 
4 *40:19 *40:21 173.368 
5 *40:21 io_oeb[10] 14.12 
*END

*D_NET *43 0.0311643
*CONN
*P io_oeb[13] O
*I *536:io_oeb[0] O *D temp_sensor
*CAP
1 io_oeb[13] 0.00476498
2 *536:io_oeb[0] 0.0108172
3 *43:5 0.0155821
*RES
1 *536:io_oeb[0] *43:5 91.156 
2 *43:5 io_oeb[13] 44.904 
*END

*D_NET *44 0.0497564
*CONN
*P io_oeb[14] O
*I *536:io_oeb[1] O *D temp_sensor
*CAP
1 io_oeb[14] 0.00475264
2 *536:io_oeb[1] 0.0195419
3 *44:5 0.0242946
4 io_oeb[14] *89:9 0.00116731
*RES
1 *536:io_oeb[1] *44:5 164.788 
2 *44:5 io_oeb[14] 48.232 
*END

*D_NET *45 0.0707201
*CONN
*P io_oeb[15] O
*I *536:io_oeb[2] O *D temp_sensor
*CAP
1 io_oeb[15] 0.000603192
2 *536:io_oeb[2] 0.020569
3 *45:9 0.0038413
4 *45:7 0.00323811
5 *45:5 0.020569
6 *45:9 *84:9 0.0218996
*RES
1 *536:io_oeb[2] *45:5 172.9 
2 *45:5 *45:7 4.5 
3 *45:7 *45:9 55.016 
4 *45:9 io_oeb[15] 9.544 
*END

*D_NET *46 0.170524
*CONN
*P io_oeb[16] O
*I *536:io_oeb[3] O *D temp_sensor
*CAP
1 io_oeb[16] 0.00065168
2 *536:io_oeb[3] 0.0205001
3 *46:9 0.00306393
4 *46:7 0.00241225
5 *46:5 0.0205001
6 *46:9 *84:9 0.053471
7 *46:9 *85:17 0.0699249
*RES
1 *536:io_oeb[3] *46:5 172.484 
2 *46:5 *46:7 4.5 
3 *46:7 *46:9 174.616 
4 *46:9 io_oeb[16] 9.96 
*END

*D_NET *47 0.25916
*CONN
*P io_oeb[17] O
*I *536:io_oeb[4] O *D temp_sensor
*CAP
1 io_oeb[17] 0.000700168
2 *536:io_oeb[4] 0.0204312
3 *47:9 0.00444101
4 *47:7 0.00374084
5 *47:5 0.0204312
6 *47:9 *48:17 0.107025
7 *47:9 *49:17 0.000535146
8 *47:9 *51:17 0.000359206
9 *47:9 *85:17 0.101496
*RES
1 *536:io_oeb[4] *47:5 172.068 
2 *47:5 *47:7 4.5 
3 *47:7 *47:9 294.216 
4 *47:9 io_oeb[17] 10.376 
*END

*D_NET *48 0.325679
*CONN
*P io_oeb[18] O
*I *536:io_oeb[5] O *D temp_sensor
*CAP
1 io_oeb[18] 0.000724412
2 *536:io_oeb[5] 0.00324393
3 *48:17 0.00748321
4 *48:15 0.0067588
5 *48:13 0.0197457
6 *48:11 0.0229896
7 *48:11 *49:11 0.000395168
8 *48:11 *51:11 0.000938009
9 *48:13 *89:15 0
10 *48:17 *49:17 0.156375
11 *47:9 *48:17 0.107025
*RES
1 *536:io_oeb[5] *48:11 39.524 
2 *48:11 *48:13 165.88 
3 *48:13 *48:15 4.5 
4 *48:15 *48:17 389.48 
5 *48:17 io_oeb[18] 10.584 
*END

*D_NET *49 0.427511
*CONN
*P io_oeb[19] O
*I *536:io_oeb[6] O *D temp_sensor
*CAP
1 io_oeb[19] 0.000748656
2 *536:io_oeb[6] 0.001916
3 *49:17 0.00755764
4 *49:15 0.00680898
5 *49:13 0.0198503
6 *49:11 0.0217663
7 *49:11 *51:11 0.00459219
8 *49:13 *89:15 0
9 *49:17 *51:17 0.206966
10 *47:9 *49:17 0.000535146
11 *48:11 *49:11 0.000395168
12 *48:17 *49:17 0.156375
*RES
1 *536:io_oeb[6] *49:11 32.036 
2 *49:11 *49:13 166.712 
3 *49:13 *49:15 4.5 
4 *49:15 *49:17 515.528 
5 *49:17 io_oeb[19] 10.792 
*END

*D_NET *51 0.339682
*CONN
*P io_oeb[20] O
*I *536:io_oeb[7] O *D temp_sensor
*CAP
1 io_oeb[20] 0.0007729
2 *536:io_oeb[7] 0.00113077
3 *51:17 0.0425089
4 *51:15 0.041736
5 *51:13 0.0197737
6 *51:11 0.0209045
7 *47:9 *51:17 0.000359206
8 *48:11 *51:11 0.000938009
9 *49:11 *51:11 0.00459219
10 *49:17 *51:17 0.206966
*RES
1 *536:io_oeb[7] *51:11 25.796 
2 *51:11 *51:13 166.296 
3 *51:13 *51:15 4.5 
4 *51:15 *51:17 641.576 
5 *51:17 io_oeb[20] 11 
*END

*D_NET *52 0.498816
*CONN
*P io_oeb[21] O
*I *538:digital_io_oen[21] O *D pinmux_top
*CAP
1 io_oeb[21] 0.000748656
2 *538:digital_io_oen[21] 0.00136184
3 *52:13 0.0034709
4 *52:11 0.00272224
5 *52:9 0.0407361
6 *52:7 0.042098
7 *52:9 *53:9 0.265223
8 *14:9 *52:13 0.0794904
9 *15:9 *52:13 0.0629647
*RES
1 *538:digital_io_oen[21] *52:7 13.704 
2 *52:7 *52:9 681.928 
3 *52:9 *52:11 4.5 
4 *52:11 *52:13 201.24 
5 *52:13 io_oeb[21] 10.792 
*END

*D_NET *53 0.404306
*CONN
*P io_oeb[22] O
*I *538:digital_io_oen[22] O *D pinmux_top
*CAP
1 io_oeb[22] 0.00114923
2 *538:digital_io_oen[22] 0.00131718
3 *53:13 0.00406688
4 *53:11 0.00291765
5 *53:9 0.0429478
6 *53:7 0.044265
7 *53:13 *90:13 2.46957e-05
8 *53:13 *91:13 0.0288393
9 *16:9 *53:13 0.0135547
10 *52:9 *53:9 0.265223
*RES
1 *538:digital_io_oen[22] *53:7 13.496 
2 *53:7 *53:9 700.232 
3 *53:9 *53:11 4.5 
4 *53:11 *53:13 78.312 
5 *53:13 io_oeb[22] 13.704 
*END

*D_NET *54 0.187932
*CONN
*P io_oeb[23] O
*I *538:digital_io_oen[23] O *D pinmux_top
*CAP
1 io_oeb[23] 0.0864002
2 *538:digital_io_oen[23] 0.00170743
3 *54:15 0.0864002
4 *54:13 0.00573046
5 *54:11 0.00743789
6 *16:13 *54:11 0
7 *27:9 io_oeb[23] 0.000255997
*RES
1 *538:digital_io_oen[23] *54:11 19.972 
2 *54:11 *54:13 46.488 
3 *54:13 *54:15 4.5 
4 *54:15 io_oeb[23] 727.22 
*END

*D_NET *55 0.173793
*CONN
*P io_oeb[24] O
*I *538:digital_io_oen[24] O *D pinmux_top
*CAP
1 io_oeb[24] 0.00679695
2 *538:digital_io_oen[24] 0.00210994
3 *55:11 0.00679695
4 *55:9 0.0779896
5 *55:7 0.0800996
*RES
1 *538:digital_io_oen[24] *55:7 21.192 
2 *55:7 *55:9 697.736 
3 *55:9 *55:11 4.5 
4 *55:11 io_oeb[24] 57.044 
*END

*D_NET *56 0.265074
*CONN
*P io_oeb[25] O
*I *538:digital_io_oen[25] O *D pinmux_top
*CAP
1 io_oeb[25] 0.00650085
2 *538:digital_io_oen[25] 0.00303287
3 *56:11 0.00650085
4 *56:9 0.0525443
5 *56:7 0.0555771
6 *56:9 *98:17 0.140918
*RES
1 *538:digital_io_oen[25] *56:7 24.312 
2 *56:7 *56:9 640.328 
3 *56:9 *56:11 4.5 
4 *56:11 io_oeb[25] 53.924 
*END

*D_NET *57 0.204301
*CONN
*P io_oeb[26] O
*I *538:digital_io_oen[26] O *D pinmux_top
*CAP
1 io_oeb[26] 0.00128008
2 *538:digital_io_oen[26] 0.00788461
3 *57:9 0.0563219
4 *57:7 0.0550418
5 *57:5 0.00788461
6 *57:9 io_oeb[32] 0
7 *57:9 *63:9 0.075888
*RES
1 *538:digital_io_oen[26] *57:5 63.492 
2 *57:5 *57:7 4.5 
3 *57:7 *57:9 582.92 
4 *57:9 io_oeb[26] 14.744 
*END

*D_NET *58 0.18975
*CONN
*P io_oeb[27] O
*I *538:digital_io_oen[27] O *D pinmux_top
*CAP
1 io_oeb[27] 0.00626926
2 *538:digital_io_oen[27] 0.0028526
3 *58:11 0.00626926
4 *58:9 0.0488257
5 *58:7 0.0516783
6 *26:9 *58:9 0.0738548
*RES
1 *538:digital_io_oen[27] *58:7 27.432 
2 *58:7 *58:9 525.512 
3 *58:9 *58:11 4.5 
4 *58:11 io_oeb[27] 50.804 
*END

*D_NET *59 0.20645
*CONN
*P io_oeb[28] O
*I *538:digital_io_oen[28] O *D pinmux_top
*CAP
1 io_oeb[28] 0.0051659
2 *538:digital_io_oen[28] 0.00399897
3 *59:9 0.0422703
4 *59:7 0.0411033
5 *25:9 *59:9 0.113911
*RES
1 *538:digital_io_oen[28] *59:7 36.792 