*SPEF "ieee 1481-1999"
*DESIGN "user_project_wrapper"
*DATE "11:11:11 Fri 11 11, 1111"
*VENDOR "OpenRCX"
*PROGRAM "Parallel Extraction"
*VERSION "1.0"
*DESIGN_FLOW "NAME_SCOPE LOCAL" "PIN_CAP NONE"
*DIVIDER /
*DELIMITER :
*BUS_DELIMITER []
*T_UNIT 1 NS
*C_UNIT 1 PF
*R_UNIT 1 OHM
*L_UNIT 1 HENRY

*NAME_MAP
*1 io_in[0]
*2 io_in[10]
*3 io_in[11]
*4 io_in[12]
*5 io_in[13]
*6 io_in[14]
*7 io_in[15]
*8 io_in[16]
*9 io_in[17]
*10 io_in[18]
*11 io_in[19]
*12 io_in[1]
*13 io_in[20]
*14 io_in[21]
*15 io_in[22]
*16 io_in[23]
*17 io_in[24]
*18 io_in[25]
*19 io_in[26]
*20 io_in[27]
*21 io_in[28]
*22 io_in[29]
*23 io_in[2]
*24 io_in[30]
*25 io_in[31]
*26 io_in[32]
*27 io_in[33]
*28 io_in[34]
*29 io_in[35]
*30 io_in[36]
*31 io_in[37]
*32 io_in[3]
*33 io_in[4]
*34 io_in[5]
*35 io_in[6]
*36 io_in[7]
*37 io_in[8]
*38 io_in[9]
*39 io_oeb[0]
*40 io_oeb[10]
*41 io_oeb[11]
*42 io_oeb[12]
*43 io_oeb[13]
*44 io_oeb[14]
*45 io_oeb[15]
*46 io_oeb[16]
*47 io_oeb[17]
*48 io_oeb[18]
*49 io_oeb[19]
*50 io_oeb[1]
*51 io_oeb[20]
*52 io_oeb[21]
*53 io_oeb[22]
*54 io_oeb[23]
*55 io_oeb[24]
*56 io_oeb[25]
*57 io_oeb[26]
*58 io_oeb[27]
*59 io_oeb[28]
*60 io_oeb[29]
*61 io_oeb[2]
*62 io_oeb[30]
*63 io_oeb[31]
*64 io_oeb[32]
*65 io_oeb[33]
*66 io_oeb[34]
*67 io_oeb[35]
*68 io_oeb[36]
*69 io_oeb[37]
*70 io_oeb[3]
*71 io_oeb[4]
*72 io_oeb[5]
*73 io_oeb[6]
*74 io_oeb[7]
*75 io_oeb[8]
*76 io_oeb[9]
*77 io_out[0]
*78 io_out[10]
*79 io_out[11]
*80 io_out[12]
*81 io_out[13]
*82 io_out[14]
*83 io_out[15]
*84 io_out[16]
*85 io_out[17]
*86 io_out[18]
*87 io_out[19]
*88 io_out[1]
*89 io_out[20]
*90 io_out[21]
*91 io_out[22]
*92 io_out[23]
*93 io_out[24]
*94 io_out[25]
*95 io_out[26]
*96 io_out[27]
*97 io_out[28]
*98 io_out[29]
*99 io_out[2]
*100 io_out[30]
*101 io_out[31]
*102 io_out[32]
*103 io_out[33]
*104 io_out[34]
*105 io_out[35]
*106 io_out[36]
*107 io_out[37]
*108 io_out[3]
*109 io_out[4]
*110 io_out[5]
*111 io_out[6]
*112 io_out[7]
*113 io_out[8]
*114 io_out[9]
*115 la_data_in[0]
*116 la_data_in[10]
*117 la_data_in[11]
*118 la_data_in[12]
*119 la_data_in[13]
*120 la_data_in[14]
*121 la_data_in[15]
*122 la_data_in[16]
*123 la_data_in[17]
*124 la_data_in[18]
*125 la_data_in[19]
*126 la_data_in[1]
*127 la_data_in[20]
*128 la_data_in[21]
*129 la_data_in[22]
*130 la_data_in[23]
*131 la_data_in[24]
*132 la_data_in[25]
*133 la_data_in[26]
*134 la_data_in[27]
*135 la_data_in[28]
*136 la_data_in[29]
*137 la_data_in[2]
*138 la_data_in[30]
*139 la_data_in[31]
*140 la_data_in[32]
*141 la_data_in[33]
*142 la_data_in[34]
*143 la_data_in[35]
*144 la_data_in[36]
*145 la_data_in[37]
*146 la_data_in[38]
*147 la_data_in[39]
*148 la_data_in[3]
*149 la_data_in[40]
*150 la_data_in[41]
*151 la_data_in[42]
*152 la_data_in[43]
*153 la_data_in[44]
*154 la_data_in[45]
*155 la_data_in[46]
*156 la_data_in[47]
*157 la_data_in[48]
*158 la_data_in[49]
*159 la_data_in[4]
*160 la_data_in[50]
*161 la_data_in[51]
*162 la_data_in[52]
*163 la_data_in[53]
*164 la_data_in[54]
*165 la_data_in[55]
*166 la_data_in[56]
*167 la_data_in[57]
*168 la_data_in[58]
*169 la_data_in[59]
*170 la_data_in[5]
*171 la_data_in[60]
*172 la_data_in[61]
*173 la_data_in[62]
*174 la_data_in[63]
*175 la_data_in[6]
*176 la_data_in[7]
*177 la_data_in[8]
*178 la_data_in[9]
*179 la_data_out[0]
*180 la_data_out[10]
*181 la_data_out[11]
*182 la_data_out[12]
*183 la_data_out[13]
*184 la_data_out[14]
*185 la_data_out[15]
*186 la_data_out[16]
*187 la_data_out[17]
*188 la_data_out[18]
*189 la_data_out[19]
*190 la_data_out[1]
*191 la_data_out[20]
*192 la_data_out[21]
*193 la_data_out[22]
*194 la_data_out[23]
*195 la_data_out[24]
*196 la_data_out[25]
*197 la_data_out[26]
*198 la_data_out[27]
*199 la_data_out[28]
*200 la_data_out[29]
*201 la_data_out[2]
*202 la_data_out[30]
*203 la_data_out[31]
*204 la_data_out[32]
*205 la_data_out[33]
*206 la_data_out[34]
*207 la_data_out[35]
*208 la_data_out[36]
*209 la_data_out[37]
*210 la_data_out[38]
*211 la_data_out[39]
*212 la_data_out[3]
*213 la_data_out[40]
*214 la_data_out[41]
*215 la_data_out[42]
*216 la_data_out[43]
*217 la_data_out[44]
*218 la_data_out[45]
*219 la_data_out[46]
*220 la_data_out[47]
*221 la_data_out[48]
*222 la_data_out[49]
*223 la_data_out[4]
*224 la_data_out[50]
*225 la_data_out[51]
*226 la_data_out[52]
*227 la_data_out[53]
*228 la_data_out[54]
*229 la_data_out[55]
*230 la_data_out[56]
*231 la_data_out[57]
*232 la_data_out[58]
*233 la_data_out[59]
*234 la_data_out[5]
*235 la_data_out[60]
*236 la_data_out[61]
*237 la_data_out[62]
*238 la_data_out[63]
*239 la_data_out[6]
*240 la_data_out[7]
*241 la_data_out[8]
*242 la_data_out[9]
*243 la_oenb[0]
*244 la_oenb[10]
*245 la_oenb[11]
*246 la_oenb[12]
*247 la_oenb[13]
*248 la_oenb[14]
*249 la_oenb[15]
*250 la_oenb[16]
*251 la_oenb[17]
*252 la_oenb[18]
*253 la_oenb[19]
*254 la_oenb[1]
*255 la_oenb[20]
*256 la_oenb[21]
*257 la_oenb[22]
*258 la_oenb[23]
*259 la_oenb[24]
*260 la_oenb[25]
*261 la_oenb[26]
*262 la_oenb[27]
*263 la_oenb[28]
*264 la_oenb[29]
*265 la_oenb[2]
*266 la_oenb[30]
*267 la_oenb[31]
*268 la_oenb[32]
*269 la_oenb[33]
*270 la_oenb[34]
*271 la_oenb[35]
*272 la_oenb[36]
*273 la_oenb[37]
*274 la_oenb[38]
*275 la_oenb[39]
*276 la_oenb[3]
*277 la_oenb[40]
*278 la_oenb[41]
*279 la_oenb[42]
*280 la_oenb[43]
*281 la_oenb[44]
*282 la_oenb[45]
*283 la_oenb[46]
*284 la_oenb[47]
*285 la_oenb[48]
*286 la_oenb[49]
*287 la_oenb[4]
*288 la_oenb[50]
*289 la_oenb[51]
*290 la_oenb[52]
*291 la_oenb[53]
*292 la_oenb[54]
*293 la_oenb[55]
*294 la_oenb[56]
*295 la_oenb[57]
*296 la_oenb[58]
*297 la_oenb[59]
*298 la_oenb[5]
*299 la_oenb[60]
*300 la_oenb[61]
*301 la_oenb[62]
*302 la_oenb[63]
*303 la_oenb[6]
*304 la_oenb[7]
*305 la_oenb[8]
*306 la_oenb[9]
*307 user_clock2
*308 user_irq[0]
*309 user_irq[1]
*310 user_irq[2]
*313 wb_clk_i
*314 wb_rst_i
*315 wbs_ack_o
*316 wbs_adr_i[0]
*317 wbs_adr_i[10]
*318 wbs_adr_i[11]
*319 wbs_adr_i[12]
*320 wbs_adr_i[13]
*321 wbs_adr_i[14]
*322 wbs_adr_i[15]
*323 wbs_adr_i[16]
*324 wbs_adr_i[17]
*325 wbs_adr_i[18]
*326 wbs_adr_i[19]
*327 wbs_adr_i[1]
*328 wbs_adr_i[20]
*329 wbs_adr_i[21]
*330 wbs_adr_i[22]
*331 wbs_adr_i[23]
*332 wbs_adr_i[24]
*333 wbs_adr_i[25]
*334 wbs_adr_i[26]
*335 wbs_adr_i[27]
*336 wbs_adr_i[28]
*337 wbs_adr_i[29]
*338 wbs_adr_i[2]
*339 wbs_adr_i[30]
*340 wbs_adr_i[31]
*341 wbs_adr_i[3]
*342 wbs_adr_i[4]
*343 wbs_adr_i[5]
*344 wbs_adr_i[6]
*345 wbs_adr_i[7]
*346 wbs_adr_i[8]
*347 wbs_adr_i[9]
*348 wbs_cyc_i
*349 wbs_dat_i[0]
*350 wbs_dat_i[10]
*351 wbs_dat_i[11]
*352 wbs_dat_i[12]
*353 wbs_dat_i[13]
*354 wbs_dat_i[14]
*355 wbs_dat_i[15]
*356 wbs_dat_i[16]
*357 wbs_dat_i[17]
*358 wbs_dat_i[18]
*359 wbs_dat_i[19]
*360 wbs_dat_i[1]
*361 wbs_dat_i[20]
*362 wbs_dat_i[21]
*363 wbs_dat_i[22]
*364 wbs_dat_i[23]
*365 wbs_dat_i[24]
*366 wbs_dat_i[25]
*367 wbs_dat_i[26]
*368 wbs_dat_i[27]
*369 wbs_dat_i[28]
*370 wbs_dat_i[29]
*371 wbs_dat_i[2]
*372 wbs_dat_i[30]
*373 wbs_dat_i[31]
*374 wbs_dat_i[3]
*375 wbs_dat_i[4]
*376 wbs_dat_i[5]
*377 wbs_dat_i[6]
*378 wbs_dat_i[7]
*379 wbs_dat_i[8]
*380 wbs_dat_i[9]
*381 wbs_dat_o[0]
*382 wbs_dat_o[10]
*383 wbs_dat_o[11]
*384 wbs_dat_o[12]
*385 wbs_dat_o[13]
*386 wbs_dat_o[14]
*387 wbs_dat_o[15]
*388 wbs_dat_o[16]
*389 wbs_dat_o[17]
*390 wbs_dat_o[18]
*391 wbs_dat_o[19]
*392 wbs_dat_o[1]
*393 wbs_dat_o[20]
*394 wbs_dat_o[21]
*395 wbs_dat_o[22]
*396 wbs_dat_o[23]
*397 wbs_dat_o[24]
*398 wbs_dat_o[25]
*399 wbs_dat_o[26]
*400 wbs_dat_o[27]
*401 wbs_dat_o[28]
*402 wbs_dat_o[29]
*403 wbs_dat_o[2]
*404 wbs_dat_o[30]
*405 wbs_dat_o[31]
*406 wbs_dat_o[3]
*407 wbs_dat_o[4]
*408 wbs_dat_o[5]
*409 wbs_dat_o[6]
*410 wbs_dat_o[7]
*411 wbs_dat_o[8]
*412 wbs_dat_o[9]
*413 wbs_sel_i[0]
*414 wbs_sel_i[1]
*415 wbs_sel_i[2]
*416 wbs_sel_i[3]
*417 wbs_stb_i
*418 wbs_we_i
*419 i2c_rst_n
*420 i2cm_clk_i
*421 i2cm_clk_o
*422 i2cm_clk_oen
*423 i2cm_data_i
*424 i2cm_data_o
*425 i2cm_data_oen
*426 i2cm_intr_o
*427 pulse1m_mclk
*428 reg_peri_ack
*429 reg_peri_addr\[0\]
*430 reg_peri_addr\[10\]
*431 reg_peri_addr\[1\]
*432 reg_peri_addr\[2\]
*433 reg_peri_addr\[3\]
*434 reg_peri_addr\[4\]
*435 reg_peri_addr\[5\]
*436 reg_peri_addr\[6\]
*437 reg_peri_addr\[7\]
*438 reg_peri_addr\[8\]
*439 reg_peri_addr\[9\]
*440 reg_peri_be\[0\]
*441 reg_peri_be\[1\]
*442 reg_peri_be\[2\]
*443 reg_peri_be\[3\]
*444 reg_peri_cs
*445 reg_peri_rdata\[0\]
*446 reg_peri_rdata\[10\]
*447 reg_peri_rdata\[11\]
*448 reg_peri_rdata\[12\]
*449 reg_peri_rdata\[13\]
*450 reg_peri_rdata\[14\]
*451 reg_peri_rdata\[15\]
*452 reg_peri_rdata\[16\]
*453 reg_peri_rdata\[17\]
*454 reg_peri_rdata\[18\]
*455 reg_peri_rdata\[19\]
*456 reg_peri_rdata\[1\]
*457 reg_peri_rdata\[20\]
*458 reg_peri_rdata\[21\]
*459 reg_peri_rdata\[22\]
*460 reg_peri_rdata\[23\]
*461 reg_peri_rdata\[24\]
*462 reg_peri_rdata\[25\]
*463 reg_peri_rdata\[26\]
*464 reg_peri_rdata\[27\]
*465 reg_peri_rdata\[28\]
*466 reg_peri_rdata\[29\]
*467 reg_peri_rdata\[2\]
*468 reg_peri_rdata\[30\]
*469 reg_peri_rdata\[31\]
*470 reg_peri_rdata\[3\]
*471 reg_peri_rdata\[4\]
*472 reg_peri_rdata\[5\]
*473 reg_peri_rdata\[6\]
*474 reg_peri_rdata\[7\]
*475 reg_peri_rdata\[8\]
*476 reg_peri_rdata\[9\]
*477 reg_peri_wdata\[0\]
*478 reg_peri_wdata\[10\]
*479 reg_peri_wdata\[11\]
*480 reg_peri_wdata\[12\]
*481 reg_peri_wdata\[13\]
*482 reg_peri_wdata\[14\]
*483 reg_peri_wdata\[15\]
*484 reg_peri_wdata\[16\]
*485 reg_peri_wdata\[17\]
*486 reg_peri_wdata\[18\]
*487 reg_peri_wdata\[19\]
*488 reg_peri_wdata\[1\]
*489 reg_peri_wdata\[20\]
*490 reg_peri_wdata\[21\]
*491 reg_peri_wdata\[22\]
*492 reg_peri_wdata\[23\]
*493 reg_peri_wdata\[24\]
*494 reg_peri_wdata\[25\]
*495 reg_peri_wdata\[26\]
*496 reg_peri_wdata\[27\]
*497 reg_peri_wdata\[28\]
*498 reg_peri_wdata\[29\]
*499 reg_peri_wdata\[2\]
*500 reg_peri_wdata\[30\]
*501 reg_peri_wdata\[31\]
*502 reg_peri_wdata\[3\]
*503 reg_peri_wdata\[4\]
*504 reg_peri_wdata\[5\]
*505 reg_peri_wdata\[6\]
*506 reg_peri_wdata\[7\]
*507 reg_peri_wdata\[8\]
*508 reg_peri_wdata\[9\]
*509 reg_peri_wr
*510 rtc_clk
*511 rtc_intr
*512 sspim_rst_n
*513 sspim_sck
*514 sspim_si
*515 sspim_so
*516 sspim_ssn\[0\]
*517 sspim_ssn\[1\]
*518 sspim_ssn\[2\]
*519 sspim_ssn\[3\]
*520 uart_rst_n\[0\]
*521 uart_rst_n\[1\]
*522 uart_rxd\[0\]
*523 uart_rxd\[1\]
*524 uart_txd\[0\]
*525 uart_txd\[1\]
*526 usb_clk
*527 usb_dn_i
*528 usb_dn_o
*529 usb_dp_i
*530 usb_dp_o
*531 usb_intr_o
*532 usb_oen
*533 usb_rst_n
*534 analog_wrapper
*535 temp_sensor
*536 u_peri
*537 u_pinmux
*538 u_uart_i2c_usb_spi
*539 wb_buttons_leds

*PORTS
io_in[0] I
io_in[10] I
io_in[11] I
io_in[12] I
io_in[13] I
io_in[14] I
io_in[15] I
io_in[16] I
io_in[17] I
io_in[18] I
io_in[19] I
io_in[1] I
io_in[20] I
io_in[21] I
io_in[22] I
io_in[23] I
io_in[24] I
io_in[25] I
io_in[26] I
io_in[27] I
io_in[28] I
io_in[29] I
io_in[2] I
io_in[30] I
io_in[31] I
io_in[32] I
io_in[33] I
io_in[34] I
io_in[35] I
io_in[36] I
io_in[37] I
io_in[3] I
io_in[4] I
io_in[5] I
io_in[6] I
io_in[7] I
io_in[8] I
io_in[9] I
io_oeb[0] O
io_oeb[10] O
io_oeb[11] O
io_oeb[12] O
io_oeb[13] O
io_oeb[14] O
io_oeb[15] O
io_oeb[16] O
io_oeb[17] O
io_oeb[18] O
io_oeb[19] O
io_oeb[1] O
io_oeb[20] O
io_oeb[21] O
io_oeb[22] O
io_oeb[23] O
io_oeb[24] O
io_oeb[25] O
io_oeb[26] O
io_oeb[27] O
io_oeb[28] O
io_oeb[29] O
io_oeb[2] O
io_oeb[30] O
io_oeb[31] O
io_oeb[32] O
io_oeb[33] O
io_oeb[34] O
io_oeb[35] O
io_oeb[36] O
io_oeb[37] O
io_oeb[3] O
io_oeb[4] O
io_oeb[5] O
io_oeb[6] O
io_oeb[7] O
io_oeb[8] O
io_oeb[9] O
io_out[0] O
io_out[10] O
io_out[11] O
io_out[12] O
io_out[13] O
io_out[14] O
io_out[15] O
io_out[16] O
io_out[17] O
io_out[18] O
io_out[19] O
io_out[1] O
io_out[20] O
io_out[21] O
io_out[22] O
io_out[23] O
io_out[24] O
io_out[25] O
io_out[26] O
io_out[27] O
io_out[28] O
io_out[29] O
io_out[2] O
io_out[30] O
io_out[31] O
io_out[32] O
io_out[33] O
io_out[34] O
io_out[35] O
io_out[36] O
io_out[37] O
io_out[3] O
io_out[4] O
io_out[5] O
io_out[6] O
io_out[7] O
io_out[8] O
io_out[9] O
la_data_in[0] I
la_data_in[10] I
la_data_in[11] I
la_data_in[12] I
la_data_in[13] I
la_data_in[14] I
la_data_in[15] I
la_data_in[16] I
la_data_in[17] I
la_data_in[18] I
la_data_in[19] I
la_data_in[1] I
la_data_in[20] I
la_data_in[21] I
la_data_in[22] I
la_data_in[23] I
la_data_in[24] I
la_data_in[25] I
la_data_in[26] I
la_data_in[27] I
la_data_in[28] I
la_data_in[29] I
la_data_in[2] I
la_data_in[30] I
la_data_in[31] I
la_data_in[32] I
la_data_in[33] I
la_data_in[34] I
la_data_in[35] I
la_data_in[36] I
la_data_in[37] I
la_data_in[38] I
la_data_in[39] I
la_data_in[3] I
la_data_in[40] I
la_data_in[41] I
la_data_in[42] I
la_data_in[43] I
la_data_in[44] I
la_data_in[45] I
la_data_in[46] I
la_data_in[47] I
la_data_in[48] I
la_data_in[49] I
la_data_in[4] I
la_data_in[50] I
la_data_in[51] I
la_data_in[52] I
la_data_in[53] I
la_data_in[54] I
la_data_in[55] I
la_data_in[56] I
la_data_in[57] I
la_data_in[58] I
la_data_in[59] I
la_data_in[5] I
la_data_in[60] I
la_data_in[61] I
la_data_in[62] I
la_data_in[63] I
la_data_in[6] I
la_data_in[7] I
la_data_in[8] I
la_data_in[9] I
la_data_out[0] O
la_data_out[10] O
la_data_out[11] O
la_data_out[12] O
la_data_out[13] O
la_data_out[14] O
la_data_out[15] O
la_data_out[16] O
la_data_out[17] O
la_data_out[18] O
la_data_out[19] O
la_data_out[1] O
la_data_out[20] O
la_data_out[21] O
la_data_out[22] O
la_data_out[23] O
la_data_out[24] O
la_data_out[25] O
la_data_out[26] O
la_data_out[27] O
la_data_out[28] O
la_data_out[29] O
la_data_out[2] O
la_data_out[30] O
la_data_out[31] O
la_data_out[32] O
la_data_out[33] O
la_data_out[34] O
la_data_out[35] O
la_data_out[36] O
la_data_out[37] O
la_data_out[38] O
la_data_out[39] O
la_data_out[3] O
la_data_out[40] O
la_data_out[41] O
la_data_out[42] O
la_data_out[43] O
la_data_out[44] O
la_data_out[45] O
la_data_out[46] O
la_data_out[47] O
la_data_out[48] O
la_data_out[49] O
la_data_out[4] O
la_data_out[50] O
la_data_out[51] O
la_data_out[52] O
la_data_out[53] O
la_data_out[54] O
la_data_out[55] O
la_data_out[56] O
la_data_out[57] O
la_data_out[58] O
la_data_out[59] O
la_data_out[5] O
la_data_out[60] O
la_data_out[61] O
la_data_out[62] O
la_data_out[63] O
la_data_out[6] O
la_data_out[7] O
la_data_out[8] O
la_data_out[9] O
la_oenb[0] I
la_oenb[10] I
la_oenb[11] I
la_oenb[12] I
la_oenb[13] I
la_oenb[14] I
la_oenb[15] I
la_oenb[16] I
la_oenb[17] I
la_oenb[18] I
la_oenb[19] I
la_oenb[1] I
la_oenb[20] I
la_oenb[21] I
la_oenb[22] I
la_oenb[23] I
la_oenb[24] I
la_oenb[25] I
la_oenb[26] I
la_oenb[27] I
la_oenb[28] I
la_oenb[29] I
la_oenb[2] I
la_oenb[30] I
la_oenb[31] I
la_oenb[32] I
la_oenb[33] I
la_oenb[34] I
la_oenb[35] I
la_oenb[36] I
la_oenb[37] I
la_oenb[38] I
la_oenb[39] I
la_oenb[3] I
la_oenb[40] I
la_oenb[41] I
la_oenb[42] I
la_oenb[43] I
la_oenb[44] I
la_oenb[45] I
la_oenb[46] I
la_oenb[47] I
la_oenb[48] I
la_oenb[49] I
la_oenb[4] I
la_oenb[50] I
la_oenb[51] I
la_oenb[52] I
la_oenb[53] I
la_oenb[54] I
la_oenb[55] I
la_oenb[56] I
la_oenb[57] I
la_oenb[58] I
la_oenb[59] I
la_oenb[5] I
la_oenb[60] I
la_oenb[61] I
la_oenb[62] I
la_oenb[63] I
la_oenb[6] I
la_oenb[7] I
la_oenb[8] I
la_oenb[9] I
user_clock2 I
user_irq[0] O
user_irq[1] O
user_irq[2] O
wb_clk_i I
wb_rst_i I
wbs_ack_o O
wbs_adr_i[0] I
wbs_adr_i[10] I
wbs_adr_i[11] I
wbs_adr_i[12] I
wbs_adr_i[13] I
wbs_adr_i[14] I
wbs_adr_i[15] I
wbs_adr_i[16] I
wbs_adr_i[17] I
wbs_adr_i[18] I
wbs_adr_i[19] I
wbs_adr_i[1] I
wbs_adr_i[20] I
wbs_adr_i[21] I
wbs_adr_i[22] I
wbs_adr_i[23] I
wbs_adr_i[24] I
wbs_adr_i[25] I
wbs_adr_i[26] I
wbs_adr_i[27] I
wbs_adr_i[28] I
wbs_adr_i[29] I
wbs_adr_i[2] I
wbs_adr_i[30] I
wbs_adr_i[31] I
wbs_adr_i[3] I
wbs_adr_i[4] I
wbs_adr_i[5] I
wbs_adr_i[6] I
wbs_adr_i[7] I
wbs_adr_i[8] I
wbs_adr_i[9] I
wbs_cyc_i I
wbs_dat_i[0] I
wbs_dat_i[10] I
wbs_dat_i[11] I
wbs_dat_i[12] I
wbs_dat_i[13] I
wbs_dat_i[14] I
wbs_dat_i[15] I
wbs_dat_i[16] I
wbs_dat_i[17] I
wbs_dat_i[18] I
wbs_dat_i[19] I
wbs_dat_i[1] I
wbs_dat_i[20] I
wbs_dat_i[21] I
wbs_dat_i[22] I
wbs_dat_i[23] I
wbs_dat_i[24] I
wbs_dat_i[25] I
wbs_dat_i[26] I
wbs_dat_i[27] I
wbs_dat_i[28] I
wbs_dat_i[29] I
wbs_dat_i[2] I
wbs_dat_i[30] I
wbs_dat_i[31] I
wbs_dat_i[3] I
wbs_dat_i[4] I
wbs_dat_i[5] I
wbs_dat_i[6] I
wbs_dat_i[7] I
wbs_dat_i[8] I
wbs_dat_i[9] I
wbs_dat_o[0] O
wbs_dat_o[10] O
wbs_dat_o[11] O
wbs_dat_o[12] O
wbs_dat_o[13] O
wbs_dat_o[14] O
wbs_dat_o[15] O
wbs_dat_o[16] O
wbs_dat_o[17] O
wbs_dat_o[18] O
wbs_dat_o[19] O
wbs_dat_o[1] O
wbs_dat_o[20] O
wbs_dat_o[21] O
wbs_dat_o[22] O
wbs_dat_o[23] O
wbs_dat_o[24] O
wbs_dat_o[25] O
wbs_dat_o[26] O
wbs_dat_o[27] O
wbs_dat_o[28] O
wbs_dat_o[29] O
wbs_dat_o[2] O
wbs_dat_o[30] O
wbs_dat_o[31] O
wbs_dat_o[3] O
wbs_dat_o[4] O
wbs_dat_o[5] O
wbs_dat_o[6] O
wbs_dat_o[7] O
wbs_dat_o[8] O
wbs_dat_o[9] O
wbs_sel_i[0] I
wbs_sel_i[1] I
wbs_sel_i[2] I
wbs_sel_i[3] I
wbs_stb_i I
wbs_we_i I

*D_NET *14 0.506664
*CONN
*P io_in[21] I
*I *537:digital_io_in[21] I *D pinmux_top
*CAP
1 io_in[21] 0.00153367
2 *537:digital_io_in[21] 0.00374334
3 *14:13 0.0038779
4 *14:11 0.000134561
5 *14:9 0.0190275
6 *14:7 0.0205612
7 *14:9 *15:9 0.0450214
8 *14:9 *53:13 0.00383787
9 *14:9 *90:13 0
10 *14:9 *91:13 2.23783e-05
11 *14:13 *15:13 0.204445
12 *14:13 *16:13 0.204459
*RES
1 io_in[21] *14:7 13.05 
2 *14:7 *14:9 198.892 
3 *14:9 *14:11 4.5 
4 *14:11 *14:13 504.716 
5 *14:13 *537:digital_io_in[21] 30.378 
*END

*D_NET *15 0.376087
*CONN
*P io_in[22] I
*I *537:digital_io_in[22] I *D pinmux_top
*CAP
1 io_in[22] 0.0012435
2 *537:digital_io_in[22] 0.00369483
3 *15:13 0.0418702
4 *15:11 0.0381754
5 *15:9 0.00238046
6 *15:7 0.00362395
7 *15:9 *90:13 0
8 *15:9 *91:13 0.0325694
9 *15:13 *16:13 0.00306347
10 *14:9 *15:9 0.0450214
11 *14:13 *15:13 0.204445
*RES
1 io_in[22] *15:7 12.898 
2 *15:7 *15:9 108.908 
3 *15:9 *15:11 4.5 
4 *15:11 *15:13 520.372 
5 *15:13 *537:digital_io_in[22] 30.226 
*END

*D_NET *16 0.438371
*CONN
*P io_in[23] I
*I *537:digital_io_in[23] I *D pinmux_top
*CAP
1 io_in[23] 0.00237735
2 *537:digital_io_in[23] 0.00373611
3 *16:13 0.00780503
4 *16:11 0.00644628
5 *16:11 *52:13 0.00801996
6 *16:13 *52:9 0.200937
7 *16:13 *90:9 0.00101334
8 *16:13 *91:9 0.00051287
9 *14:13 *16:13 0.204459
10 *15:13 *16:13 0.00306347
*RES
1 io_in[23] *16:11 35.106 
2 *16:11 *16:13 537.548 
3 *16:13 *537:digital_io_in[23] 30.53 
*END

*D_NET *17 0.236935
*CONN
*P io_in[24] I
*I *537:digital_io_in[24] I *D pinmux_top
*CAP
1 io_in[24] 0.00727817
2 *537:digital_io_in[24] 0.00443688
3 *17:9 0.0629505
4 *17:7 0.0585136
5 *17:5 0.00727817
6 *537:digital_io_in[24] io_out[33] 0
7 *17:9 *98:17 0.0964773
*RES
1 io_in[24] *17:5 50.806 
2 *17:5 *17:7 4.5 
3 *17:7 *17:9 537.852 
4 *17:9 *537:digital_io_in[24] 34.786 
*END

*D_NET *18 0.273513
*CONN
*P io_in[25] I
*I *537:digital_io_in[25] I *D pinmux_top
*CAP
1 io_in[25] 0.00110873
2 *537:digital_io_in[25] 0.0108383
3 *18:11 0.0108383
4 *18:9 0.0415006
5 *18:7 0.0426093
6 *18:9 *57:9 0.166618
*RES
1 io_in[25] *18:7 11.986 
2 *18:7 *18:9 495.9 
3 *18:9 *18:11 4.5 
4 *18:11 *537:digital_io_in[25] 73.606 
*END

*D_NET *19 0.149353
*CONN
*P io_in[26] I
*I *537:digital_io_in[26] I *D pinmux_top
*CAP
1 io_in[26] 0.00245666
2 *537:digital_io_in[26] 0.00943586
3 *19:11 0.00943586
4 *19:9 0.0627838
5 *19:7 0.0652405
*RES
1 io_in[26] *19:7 21.106 
2 *19:7 *19:9 453.948 
3 *19:9 *19:11 4.5 
4 *19:11 *537:digital_io_in[26] 64.486 
*END

*D_NET *20 0.138968
*CONN
*P io_in[27] I
*I *537:digital_io_in[27] I *D pinmux_top
*CAP
1 io_in[27] 0.00335177
2 *537:digital_io_in[27] 0.00911263
3 *20:11 0.00911263
4 *20:9 0.0570195
5 *20:7 0.0603713
*RES
1 io_in[27] *20:7 23.386 
2 *20:7 *20:9 411.996 
3 *20:9 *20:11 4.5 
4 *20:11 *537:digital_io_in[27] 62.206 
*END

*D_NET *21 0.127464
*CONN
*P io_in[28] I
*I *537:digital_io_in[28] I *D pinmux_top
*CAP
1 io_in[28] 0.00374638
2 *537:digital_io_in[28] 0.00876205
3 *21:11 0.00876205
4 *21:9 0.0512237
5 *21:7 0.0549701
*RES
1 io_in[28] *21:7 25.666 
2 *21:7 *21:9 370.044 
3 *21:9 *21:11 4.5 
4 *21:11 *537:digital_io_in[28] 59.926 
*END

*D_NET *22 0.114871
*CONN
*P io_in[29] I
*I *537:digital_io_in[29] I *D pinmux_top
*CAP
1 io_in[29] 0.00348106
2 *537:digital_io_in[29] 0.00843882
3 *22:11 0.00843882
4 *22:9 0.0455155
5 *22:7 0.0489966
*RES
1 io_in[29] *22:7 27.946 
2 *22:7 *22:9 328.092 
3 *22:9 *22:11 4.5 
4 *22:11 *537:digital_io_in[29] 57.646 
*END

*D_NET *24 0.171789
*CONN
*P io_in[30] I
*I *537:digital_io_in[30] I *D pinmux_top
*CAP
1 io_in[30] 0.00383861
2 *537:digital_io_in[30] 0.00806759
3 *24:11 0.00806759
4 *24:9 0.0230381
5 *24:7 0.0268767
6 *24:9 *96:9 0.101901
*RES
1 io_in[30] *24:7 30.378 
2 *24:7 *24:9 286.14 
3 *24:9 *24:11 4.5 
4 *24:11 *537:digital_io_in[30] 55.214 
*END

*D_NET *25 0.136495
*CONN
*P io_in[31] I
*I *537:digital_io_in[31] I *D pinmux_top
*CAP
1 io_in[31] 0.00458085
2 *537:digital_io_in[31] 0.00160426
3 *25:13 0.00829209
4 *25:11 0.00668783
5 *25:9 0.0228062
6 *25:7 0.0273871
7 *25:9 *94:9 0.0651363
*RES
1 io_in[31] *25:7 34.938 
2 *25:7 *25:9 240.844 
3 *25:9 *25:11 4.5 
4 *25:11 *25:13 46.588 
5 *25:13 *537:digital_io_in[31] 16.562 
*END

*D_NET *26 0.104335
*CONN
*P io_in[32] I
*I *537:digital_io_in[32] I *D pinmux_top
*CAP
1 io_in[32] 0.00563265
2 *537:digital_io_in[32] 0.00148717
3 *26:15 0.00713689
4 *26:9 0.0277052
5 *26:7 0.0276881
6 *26:9 *93:9 0.0346849
*RES
1 io_in[32] *26:7 41.778 
2 *26:7 *26:9 199.348 
3 *26:9 *26:15 48.748 
4 *26:15 *537:digital_io_in[32] 11.606 
*END

*D_NET *27 0.0988674
*CONN
*P io_in[33] I
*I *537:digital_io_in[33] I *D pinmux_top
*CAP
1 io_in[33] 0.00598324
2 *537:digital_io_in[33] 0.0059367
3 *27:9 0.020889
4 *27:7 0.0209356
5 *27:9 *60:9 0.0451228
*RES
1 io_in[33] *27:7 44.058 
2 *27:7 *27:9 160.284 
3 *27:9 *537:digital_io_in[33] 46.034 
*END

*D_NET *28 0.0565398
*CONN
*P io_in[34] I
*I *537:digital_io_in[34] I *D pinmux_top
*CAP
1 io_in[34] 0.00205335
2 *537:digital_io_in[34] 0.00238949
3 *28:13 0.0108519
4 *28:11 0.00846245
5 *28:9 0.0148155
6 *28:7 0.0168689
7 *537:digital_io_in[34] *103:15 0
8 *28:7 *95:5 0.00109816
*RES
1 io_in[34] *28:7 21.106 
2 *28:7 *28:9 107.236 
3 *28:9 *28:11 4.5 
4 *28:11 *28:13 59.356 
5 *28:13 *537:digital_io_in[34] 25.378 
*END

*D_NET *29 0.0447967
*CONN
*P io_in[35] I
*I *537:digital_io_in[35] I *D pinmux_top
*CAP
1 io_in[35] 0.00282064
2 *537:digital_io_in[35] 0.00147413
3 *29:13 0.00946888
4 *29:11 0.00799476
5 *29:9 0.0101088
6 *29:7 0.0129295
7 *29:13 *66:5 0
*RES
1 io_in[35] *29:7 23.386 
2 *29:7 *29:9 72.58 
3 *29:9 *29:11 4.5 
4 *29:11 *29:13 56.012 
5 *29:13 *537:digital_io_in[35] 19.146 
*END

*D_NET *30 0.0404796
*CONN
*P io_in[36] I
*I *537:digital_io_in[36] I *D pinmux_top
*CAP
1 io_in[36] 0.00334337
2 *537:digital_io_in[36] 0.0108057
3 *30:11 0.0141491
4 *30:11 io_out[36] 0.00216412
5 *30:11 *105:9 0.0100173
*RES
1 io_in[36] *30:11 48.938 
2 *30:11 *537:digital_io_in[36] 75.582 
*END

*D_NET *31 0.0262447
*CONN
*P io_in[37] I
*I *537:digital_io_in[37] I *D pinmux_top
*CAP
1 io_in[37] 0.00178215
2 *537:digital_io_in[37] 0.010847
3 *31:11 0.0126291
4 *31:11 io_out[37] 0.000986425
*RES
1 io_in[37] *31:11 21.73 
2 *31:11 *537:digital_io_in[37] 75.886 
*END

*D_NET *34 0.138998
*CONN
*P io_in[5] I
*I *539:buttons[0] I *D wb_buttons_leds
*CAP
1 io_in[5] 0.000909484
2 *539:buttons[0] 0
3 *34:17 0.00578918
4 *34:15 0.00606818
5 *34:9 0.0140807
6 *34:7 0.0147112
7 *34:9 *35:9 0.0820187
8 *34:15 *539:buttons[1] 0.00126019
9 *34:15 *314:72 2.9536e-05
10 *34:17 *539:buttons[1] 0.0109962
11 *34:17 *72:12 0.00223255
12 *34:17 *72:14 2.61927e-06
13 *34:17 *73:12 0.000899059
*RES
1 io_in[5] *34:7 10.77 
2 *34:7 *34:9 196.764 
3 *34:9 *34:15 12.268 
4 *34:15 *34:17 59.964 
5 *34:17 *539:buttons[0] 4.5 
*END

*D_NET *35 0.237697
*CONN
*P io_in[6] I
*I *539:buttons[1] I *D wb_buttons_leds
*CAP
1 io_in[6] 0.000859781
2 *539:buttons[1] 0.00210116
3 *35:9 0.00643275
4 *35:7 0.00519138
5 *539:buttons[1] *314:72 0.000133843
6 *35:9 *73:14 0.104452
7 *35:9 *113:5 0.0242509
8 *34:9 *35:9 0.0820187
9 *34:15 *539:buttons[1] 0.00126019
10 *34:17 *539:buttons[1] 0.0109962
*RES
1 io_in[6] *35:7 10.618 
2 *35:7 *35:9 250.724 
3 *35:9 *539:buttons[1] 43.14 
*END

*D_NET *40 0.198968
*CONN
*P io_oeb[10] O
*I *539:xtal_clk_enb[1] O *D wb_buttons_leds
*CAP
1 io_oeb[10] 0.00096492
2 *539:xtal_clk_enb[1] 0.00270604
3 *40:21 0.0316907
4 *40:19 0.0339064
5 *40:13 0.0237068
6 *40:11 0.0232322
7 *40:11 *78:11 0
8 *40:11 *114:11 0.000399404
9 *40:13 *74:5 0
10 *40:13 *114:13 0.0485102
11 *40:13 *317:37 0.00881965
12 *40:21 io_oeb[9] 0.000229993
13 *40:21 io_out[9] 0.000300987
14 *40:21 *78:21 0.0204108
15 *40:21 *113:5 0.00409016
*RES
1 *539:xtal_clk_enb[1] *40:11 26.746 
2 *40:11 *40:13 247.532 
3 *40:13 *40:19 29.292 
4 *40:19 *40:21 249.812 
5 *40:21 io_oeb[10] 11.53 
*END

*D_NET *43 0.0279388
*CONN
*P io_oeb[13] O
*I *535:io_oeb[0] O *D temp_sensor
*CAP
1 io_oeb[13] 0.00423214
2 *535:io_oeb[0] 0.00973727
3 *43:5 0.0139694
*RES
1 *535:io_oeb[0] *43:5 66.614 
2 *43:5 io_oeb[13] 34.026 
*END

*D_NET *44 0.0442862
*CONN
*P io_oeb[14] O
*I *535:io_oeb[1] O *D temp_sensor
*CAP
1 io_oeb[14] 0.00454147
2 *535:io_oeb[1] 0.0176016
3 *44:5 0.0221431
*RES
1 *535:io_oeb[1] *44:5 120.422 
2 *44:5 io_oeb[14] 36.458 
*END

*D_NET *45 0.0606735
*CONN
*P io_oeb[15] O
*I *535:io_oeb[2] O *D temp_sensor
*CAP
1 io_oeb[15] 0.00137647
2 *535:io_oeb[2] 0.0176891
3 *45:15 0.00329914
4 *45:5 0.0196118
5 *45:15 *46:9 0.0122736
6 *45:15 *48:17 0.000335134
7 *45:15 *49:17 0.00170588
8 *45:15 *51:17 0.00438244
*RES
1 *535:io_oeb[2] *45:5 121.03 
2 *45:5 *45:15 49.66 
3 *45:15 io_oeb[15] 17.778 
*END

*D_NET *46 0.117913
*CONN
*P io_oeb[16] O
*I *535:io_oeb[3] O *D temp_sensor
*CAP
1 io_oeb[16] 0.00157983
2 *535:io_oeb[3] 0.0176672
3 *46:9 0.00470782
4 *46:7 0.00312799
5 *46:5 0.0176672
6 io_oeb[16] *47:9 0.000603996
7 io_oeb[16] *51:17 0.00240614
8 *46:9 *47:9 0.0492585
9 *46:9 *51:17 0.00862027
10 *45:15 *46:9 0.0122736
*RES
1 *535:io_oeb[3] *46:5 120.878 
2 *46:5 *46:7 4.5 
3 *46:7 *46:9 121.904 
4 *46:9 io_oeb[16] 28.586 
*END

*D_NET *47 0.132978
*CONN
*P io_oeb[17] O
*I *535:io_oeb[4] O *D temp_sensor
*CAP
1 io_oeb[17] 0.00143061
2 *535:io_oeb[4] 0.0176454
3 *47:9 0.0202061
4 *47:7 0.0187755
5 *47:5 0.0176454
6 *47:9 *51:17 0.00741251
7 io_oeb[16] *47:9 0.000603996
8 *46:9 *47:9 0.0492585
*RES
1 *535:io_oeb[4] *47:5 120.726 
2 *47:5 *47:7 4.5 
3 *47:7 *47:9 215.004 
4 *47:9 io_oeb[17] 22.886 
*END

*D_NET *48 0.205769
*CONN
*P io_oeb[18] O
*I *535:io_oeb[5] O *D temp_sensor
*CAP
1 io_oeb[18] 0.00122163
2 *535:io_oeb[5] 0.00126109
3 *48:17 0.0232267
4 *48:15 0.0220051
5 *48:13 0.0170519
6 *48:11 0.018313
7 *48:11 *85:11 0
8 *48:11 *89:11 0
9 *48:17 io_out[15] 0
10 *48:17 *49:17 0.122354
11 *48:17 *86:17 0
12 *48:17 *89:17 0
13 *45:15 *48:17 0.000335134
*RES
1 *535:io_oeb[5] *48:11 16.41 
2 *48:11 *48:13 116.356 
3 *48:13 *48:15 4.5 
4 *48:15 *48:17 300.58 
5 *48:17 io_oeb[18] 12.746 
*END

*D_NET *49 0.332162
*CONN
*P io_oeb[19] O
*I *535:io_oeb[6] O *D temp_sensor
*CAP
1 io_oeb[19] 0.00123068
2 *535:io_oeb[6] 0.00106722
3 *49:17 0.00901092
4 *49:15 0.00778024
5 *49:13 0.0172962
6 *49:11 0.0183634
7 *49:11 *89:11 0.000355985
8 *49:13 *51:11 0
9 *49:17 *51:17 0.152997
10 *49:17 *89:17 0
11 *45:15 *49:17 0.00170588
12 *48:17 *49:17 0.122354
*RES
1 *535:io_oeb[6] *49:11 16.866 
2 *49:11 *49:13 117.876 
3 *49:13 *49:15 4.5 
4 *49:15 *49:17 385.852 
5 *49:17 io_oeb[19] 12.898 
*END

*D_NET *51 0.287013
*CONN
*P io_oeb[20] O
*I *535:io_oeb[7] O *D temp_sensor
*CAP
1 io_oeb[20] 0.00123973
2 *535:io_oeb[7] 0.0025139
3 *51:17 0.0328089
4 *51:15 0.0315691
5 *51:13 0.0165271
6 *51:11 0.019041
7 *51:11 *89:11 0.00442812
8 *51:13 *84:15 0.00306688
9 *51:17 *89:17 0
10 io_oeb[16] *51:17 0.00240614
11 *45:15 *51:17 0.00438244
12 *46:9 *51:17 0.00862027
13 *47:9 *51:17 0.00741251
14 *49:13 *51:11 0
15 *49:17 *51:17 0.152997
*RES
1 *535:io_oeb[7] *51:11 30.85 
2 *51:11 *51:13 116.964 
3 *51:13 *51:15 4.5 
4 *51:15 *51:17 460.028 
5 *51:17 io_oeb[20] 13.05 
*END

*D_NET *52 0.494866
*CONN
*P io_oeb[21] O
*I *537:digital_io_oen[21] O *D pinmux_top
*CAP
1 io_oeb[21] 0.000999175
2 *537:digital_io_oen[21] 0.0038125
3 *52:13 0.00975878
4 *52:11 0.0087596
5 *52:9 0.000149124
6 *52:7 0.00396162
7 *52:9 *90:9 0.200892
8 *52:13 *90:13 0.0575757
9 *16:11 *52:13 0.00801996
10 *16:13 *52:9 0.200937
*RES
1 *537:digital_io_oen[21] *52:7 30.682 
2 *52:7 *52:9 496.052 
3 *52:9 *52:11 4.5 
4 *52:11 *52:13 139.308 
5 *52:13 io_oeb[21] 11.378 
*END

*D_NET *53 0.170856
*CONN
*P io_oeb[22] O
*I *537:digital_io_oen[22] O *D pinmux_top
*CAP
1 io_oeb[22] 0.00141779
2 *537:digital_io_oen[22] 0.00314505
3 *53:13 0.00613998
4 *53:11 0.00472219
5 *53:9 0.0742239
6 *53:7 0.0773689
7 *14:9 *53:13 0.00383787
*RES
1 *537:digital_io_oen[22] *53:7 26.882 
2 *53:7 *53:9 509.124 
3 *53:9 *53:11 4.5 
4 *53:11 *53:13 45.828 
5 *53:13 io_oeb[22] 22.886 
*END

*D_NET *54 0.176298
*CONN
*P io_oeb[23] O
*I *537:digital_io_oen[23] O *D pinmux_top
*CAP
1 io_oeb[23] 0.0776598
2 *537:digital_io_oen[23] 0.00189007
3 *54:15 0.0776598
4 *54:13 0.00859909
5 *54:11 0.0104892
*RES
1 *537:digital_io_oen[23] *54:11 20.058 
2 *54:11 *54:13 58.14 
3 *54:13 *54:15 4.5 
4 *54:15 io_oeb[23] 531.43 
*END

*D_NET *55 0.215893
*CONN
*P io_oeb[24] O
*I *537:digital_io_oen[24] O *D pinmux_top
*CAP
1 io_oeb[24] 0.00698228
2 *537:digital_io_oen[24] 0.00476011
3 *55:11 0.00698228
4 *55:9 0.0578481
5 *55:7 0.0626082
6 *55:9 *100:17 0.0767122
*RES
1 *537:digital_io_oen[24] *55:7 37.066 
2 *55:7 *55:9 509.884 
3 *55:9 *55:11 4.5 
4 *55:11 io_oeb[24] 48.526 
*END

*D_NET *56 0.194869
*CONN
*P io_oeb[25] O
*I *537:digital_io_oen[25] O *D pinmux_top
*CAP
1 io_oeb[25] 0.00670006
2 *537:digital_io_oen[25] 0.00612088
3 *56:11 0.00670006
4 *56:9 0.0549896
5 *56:7 0.0611104
6 *56:9 *101:9 0.0592483
*RES
1 *537:digital_io_oen[25] *56:7 39.346 
2 *56:7 *56:9 467.932 
3 *56:9 *56:11 4.5 
4 *56:11 io_oeb[25] 46.246 
*END

*D_NET *57 0.293031
*CONN
*P io_oeb[26] O
*I *537:digital_io_oen[26] O *D pinmux_top
*CAP
1 io_oeb[26] 0.00115673
2 *537:digital_io_oen[26] 0.0107903
3 *57:9 0.0235703
4 *57:7 0.0224136
5 *57:5 0.0107903
6 *57:9 *63:9 0.0576917
7 *18:9 *57:9 0.166618
*RES
1 *537:digital_io_oen[26] *57:5 73.454 
2 *57:5 *57:7 4.5 
3 *57:7 *57:9 425.98 
4 *57:9 io_oeb[26] 12.138 
*END

*D_NET *58 0.13003
*CONN
*P io_oeb[27] O