*SPEF "ieee 1481-1999"
*DESIGN "user_project_wrapper"
*DATE "11:11:11 Fri 11 11, 1111"
*VENDOR "OpenRCX"
*PROGRAM "Parallel Extraction"
*VERSION "1.0"
*DESIGN_FLOW "NAME_SCOPE LOCAL" "PIN_CAP NONE"
*DIVIDER /
*DELIMITER :
*BUS_DELIMITER []
*T_UNIT 1 NS
*C_UNIT 1 PF
*R_UNIT 1 OHM
*L_UNIT 1 HENRY

*NAME_MAP
*1 io_in[0]
*2 io_in[10]
*3 io_in[11]
*4 io_in[12]
*5 io_in[13]
*6 io_in[14]
*7 io_in[15]
*8 io_in[16]
*9 io_in[17]
*10 io_in[18]
*11 io_in[19]
*12 io_in[1]
*13 io_in[20]
*14 io_in[21]
*15 io_in[22]
*16 io_in[23]
*17 io_in[24]
*18 io_in[25]
*19 io_in[26]
*20 io_in[27]
*21 io_in[28]
*22 io_in[29]
*23 io_in[2]
*24 io_in[30]
*25 io_in[31]
*26 io_in[32]
*27 io_in[33]
*28 io_in[34]
*29 io_in[35]
*30 io_in[36]
*31 io_in[37]
*32 io_in[3]
*33 io_in[4]
*34 io_in[5]
*35 io_in[6]
*36 io_in[7]
*37 io_in[8]
*38 io_in[9]
*39 io_oeb[0]
*40 io_oeb[10]
*41 io_oeb[11]
*42 io_oeb[12]
*43 io_oeb[13]
*44 io_oeb[14]
*45 io_oeb[15]
*46 io_oeb[16]
*47 io_oeb[17]
*48 io_oeb[18]
*49 io_oeb[19]
*50 io_oeb[1]
*51 io_oeb[20]
*52 io_oeb[21]
*53 io_oeb[22]
*54 io_oeb[23]
*55 io_oeb[24]
*56 io_oeb[25]
*57 io_oeb[26]
*58 io_oeb[27]
*59 io_oeb[28]
*60 io_oeb[29]
*61 io_oeb[2]
*62 io_oeb[30]
*63 io_oeb[31]
*64 io_oeb[32]
*65 io_oeb[33]
*66 io_oeb[34]
*67 io_oeb[35]
*68 io_oeb[36]
*69 io_oeb[37]
*70 io_oeb[3]
*71 io_oeb[4]
*72 io_oeb[5]
*73 io_oeb[6]
*74 io_oeb[7]
*75 io_oeb[8]
*76 io_oeb[9]
*77 io_out[0]
*78 io_out[10]
*79 io_out[11]
*80 io_out[12]
*81 io_out[13]
*82 io_out[14]
*83 io_out[15]
*84 io_out[16]
*85 io_out[17]
*86 io_out[18]
*87 io_out[19]
*88 io_out[1]
*89 io_out[20]
*90 io_out[21]
*91 io_out[22]
*92 io_out[23]
*93 io_out[24]
*94 io_out[25]
*95 io_out[26]
*96 io_out[27]
*97 io_out[28]
*98 io_out[29]
*99 io_out[2]
*100 io_out[30]
*101 io_out[31]
*102 io_out[32]
*103 io_out[33]
*104 io_out[34]
*105 io_out[35]
*106 io_out[36]
*107 io_out[37]
*108 io_out[3]
*109 io_out[4]
*110 io_out[5]
*111 io_out[6]
*112 io_out[7]
*113 io_out[8]
*114 io_out[9]
*115 la_data_in[0]
*116 la_data_in[10]
*117 la_data_in[11]
*118 la_data_in[12]
*119 la_data_in[13]
*120 la_data_in[14]
*121 la_data_in[15]
*122 la_data_in[16]
*123 la_data_in[17]
*124 la_data_in[18]
*125 la_data_in[19]
*126 la_data_in[1]
*127 la_data_in[20]
*128 la_data_in[21]
*129 la_data_in[22]
*130 la_data_in[23]
*131 la_data_in[24]
*132 la_data_in[25]
*133 la_data_in[26]
*134 la_data_in[27]
*135 la_data_in[28]
*136 la_data_in[29]
*137 la_data_in[2]
*138 la_data_in[30]
*139 la_data_in[31]
*140 la_data_in[32]
*141 la_data_in[33]
*142 la_data_in[34]
*143 la_data_in[35]
*144 la_data_in[36]
*145 la_data_in[37]
*146 la_data_in[38]
*147 la_data_in[39]
*148 la_data_in[3]
*149 la_data_in[40]
*150 la_data_in[41]
*151 la_data_in[42]
*152 la_data_in[43]
*153 la_data_in[44]
*154 la_data_in[45]
*155 la_data_in[46]
*156 la_data_in[47]
*157 la_data_in[48]
*158 la_data_in[49]
*159 la_data_in[4]
*160 la_data_in[50]
*161 la_data_in[51]
*162 la_data_in[52]
*163 la_data_in[53]
*164 la_data_in[54]
*165 la_data_in[55]
*166 la_data_in[56]
*167 la_data_in[57]
*168 la_data_in[58]
*169 la_data_in[59]
*170 la_data_in[5]
*171 la_data_in[60]
*172 la_data_in[61]
*173 la_data_in[62]
*174 la_data_in[63]
*175 la_data_in[6]
*176 la_data_in[7]
*177 la_data_in[8]
*178 la_data_in[9]
*179 la_data_out[0]
*180 la_data_out[10]
*181 la_data_out[11]
*182 la_data_out[12]
*183 la_data_out[13]
*184 la_data_out[14]
*185 la_data_out[15]
*186 la_data_out[16]
*187 la_data_out[17]
*188 la_data_out[18]
*189 la_data_out[19]
*190 la_data_out[1]
*191 la_data_out[20]
*192 la_data_out[21]
*193 la_data_out[22]
*194 la_data_out[23]
*195 la_data_out[24]
*196 la_data_out[25]
*197 la_data_out[26]
*198 la_data_out[27]
*199 la_data_out[28]
*200 la_data_out[29]
*201 la_data_out[2]
*202 la_data_out[30]
*203 la_data_out[31]
*204 la_data_out[32]
*205 la_data_out[33]
*206 la_data_out[34]
*207 la_data_out[35]
*208 la_data_out[36]
*209 la_data_out[37]
*210 la_data_out[38]
*211 la_data_out[39]
*212 la_data_out[3]
*213 la_data_out[40]
*214 la_data_out[41]
*215 la_data_out[42]
*216 la_data_out[43]
*217 la_data_out[44]
*218 la_data_out[45]
*219 la_data_out[46]
*220 la_data_out[47]
*221 la_data_out[48]
*222 la_data_out[49]
*223 la_data_out[4]
*224 la_data_out[50]
*225 la_data_out[51]
*226 la_data_out[52]
*227 la_data_out[53]
*228 la_data_out[54]
*229 la_data_out[55]
*230 la_data_out[56]
*231 la_data_out[57]
*232 la_data_out[58]
*233 la_data_out[59]
*234 la_data_out[5]
*235 la_data_out[60]
*236 la_data_out[61]
*237 la_data_out[62]
*238 la_data_out[63]
*239 la_data_out[6]
*240 la_data_out[7]
*241 la_data_out[8]
*242 la_data_out[9]
*243 la_oenb[0]
*244 la_oenb[10]
*245 la_oenb[11]
*246 la_oenb[12]
*247 la_oenb[13]
*248 la_oenb[14]
*249 la_oenb[15]
*250 la_oenb[16]
*251 la_oenb[17]
*252 la_oenb[18]
*253 la_oenb[19]
*254 la_oenb[1]
*255 la_oenb[20]
*256 la_oenb[21]
*257 la_oenb[22]
*258 la_oenb[23]
*259 la_oenb[24]
*260 la_oenb[25]
*261 la_oenb[26]
*262 la_oenb[27]
*263 la_oenb[28]
*264 la_oenb[29]
*265 la_oenb[2]
*266 la_oenb[30]
*267 la_oenb[31]
*268 la_oenb[32]
*269 la_oenb[33]
*270 la_oenb[34]
*271 la_oenb[35]
*272 la_oenb[36]
*273 la_oenb[37]
*274 la_oenb[38]
*275 la_oenb[39]
*276 la_oenb[3]
*277 la_oenb[40]
*278 la_oenb[41]
*279 la_oenb[42]
*280 la_oenb[43]
*281 la_oenb[44]
*282 la_oenb[45]
*283 la_oenb[46]
*284 la_oenb[47]
*285 la_oenb[48]
*286 la_oenb[49]
*287 la_oenb[4]
*288 la_oenb[50]
*289 la_oenb[51]
*290 la_oenb[52]
*291 la_oenb[53]
*292 la_oenb[54]
*293 la_oenb[55]
*294 la_oenb[56]
*295 la_oenb[57]
*296 la_oenb[58]
*297 la_oenb[59]
*298 la_oenb[5]
*299 la_oenb[60]
*300 la_oenb[61]
*301 la_oenb[62]
*302 la_oenb[63]
*303 la_oenb[6]
*304 la_oenb[7]
*305 la_oenb[8]
*306 la_oenb[9]
*307 user_clock2
*308 user_irq[0]
*309 user_irq[1]
*310 user_irq[2]
*313 wb_clk_i
*314 wb_rst_i
*315 wbs_ack_o
*316 wbs_adr_i[0]
*317 wbs_adr_i[10]
*318 wbs_adr_i[11]
*319 wbs_adr_i[12]
*320 wbs_adr_i[13]
*321 wbs_adr_i[14]
*322 wbs_adr_i[15]
*323 wbs_adr_i[16]
*324 wbs_adr_i[17]
*325 wbs_adr_i[18]
*326 wbs_adr_i[19]
*327 wbs_adr_i[1]
*328 wbs_adr_i[20]
*329 wbs_adr_i[21]
*330 wbs_adr_i[22]
*331 wbs_adr_i[23]
*332 wbs_adr_i[24]
*333 wbs_adr_i[25]
*334 wbs_adr_i[26]
*335 wbs_adr_i[27]
*336 wbs_adr_i[28]
*337 wbs_adr_i[29]
*338 wbs_adr_i[2]
*339 wbs_adr_i[30]
*340 wbs_adr_i[31]
*341 wbs_adr_i[3]
*342 wbs_adr_i[4]
*343 wbs_adr_i[5]
*344 wbs_adr_i[6]
*345 wbs_adr_i[7]
*346 wbs_adr_i[8]
*347 wbs_adr_i[9]
*348 wbs_cyc_i
*349 wbs_dat_i[0]
*350 wbs_dat_i[10]
*351 wbs_dat_i[11]
*352 wbs_dat_i[12]
*353 wbs_dat_i[13]
*354 wbs_dat_i[14]
*355 wbs_dat_i[15]
*356 wbs_dat_i[16]
*357 wbs_dat_i[17]
*358 wbs_dat_i[18]
*359 wbs_dat_i[19]
*360 wbs_dat_i[1]
*361 wbs_dat_i[20]
*362 wbs_dat_i[21]
*363 wbs_dat_i[22]
*364 wbs_dat_i[23]
*365 wbs_dat_i[24]
*366 wbs_dat_i[25]
*367 wbs_dat_i[26]
*368 wbs_dat_i[27]
*369 wbs_dat_i[28]
*370 wbs_dat_i[29]
*371 wbs_dat_i[2]
*372 wbs_dat_i[30]
*373 wbs_dat_i[31]
*374 wbs_dat_i[3]
*375 wbs_dat_i[4]
*376 wbs_dat_i[5]
*377 wbs_dat_i[6]
*378 wbs_dat_i[7]
*379 wbs_dat_i[8]
*380 wbs_dat_i[9]
*381 wbs_dat_o[0]
*382 wbs_dat_o[10]
*383 wbs_dat_o[11]
*384 wbs_dat_o[12]
*385 wbs_dat_o[13]
*386 wbs_dat_o[14]
*387 wbs_dat_o[15]
*388 wbs_dat_o[16]
*389 wbs_dat_o[17]
*390 wbs_dat_o[18]
*391 wbs_dat_o[19]
*392 wbs_dat_o[1]
*393 wbs_dat_o[20]
*394 wbs_dat_o[21]
*395 wbs_dat_o[22]
*396 wbs_dat_o[23]
*397 wbs_dat_o[24]
*398 wbs_dat_o[25]
*399 wbs_dat_o[26]
*400 wbs_dat_o[27]
*401 wbs_dat_o[28]
*402 wbs_dat_o[29]
*403 wbs_dat_o[2]
*404 wbs_dat_o[30]
*405 wbs_dat_o[31]
*406 wbs_dat_o[3]
*407 wbs_dat_o[4]
*408 wbs_dat_o[5]
*409 wbs_dat_o[6]
*410 wbs_dat_o[7]
*411 wbs_dat_o[8]
*412 wbs_dat_o[9]
*413 wbs_sel_i[0]
*414 wbs_sel_i[1]
*415 wbs_sel_i[2]
*416 wbs_sel_i[3]
*417 wbs_stb_i
*418 wbs_we_i
*419 i2c_rst_n
*420 i2cm_clk_i
*421 i2cm_clk_o
*422 i2cm_clk_oen
*423 i2cm_data_i
*424 i2cm_data_o
*425 i2cm_data_oen
*426 i2cm_intr_o
*427 pulse1m_mclk
*428 reg_peri_ack
*429 reg_peri_addr\[0\]
*430 reg_peri_addr\[10\]
*431 reg_peri_addr\[1\]
*432 reg_peri_addr\[2\]
*433 reg_peri_addr\[3\]
*434 reg_peri_addr\[4\]
*435 reg_peri_addr\[5\]
*436 reg_peri_addr\[6\]
*437 reg_peri_addr\[7\]
*438 reg_peri_addr\[8\]
*439 reg_peri_addr\[9\]
*440 reg_peri_be\[0\]
*441 reg_peri_be\[1\]
*442 reg_peri_be\[2\]
*443 reg_peri_be\[3\]
*444 reg_peri_cs
*445 reg_peri_rdata\[0\]
*446 reg_peri_rdata\[10\]
*447 reg_peri_rdata\[11\]
*448 reg_peri_rdata\[12\]
*449 reg_peri_rdata\[13\]
*450 reg_peri_rdata\[14\]
*451 reg_peri_rdata\[15\]
*452 reg_peri_rdata\[16\]
*453 reg_peri_rdata\[17\]
*454 reg_peri_rdata\[18\]
*455 reg_peri_rdata\[19\]
*456 reg_peri_rdata\[1\]
*457 reg_peri_rdata\[20\]
*458 reg_peri_rdata\[21\]
*459 reg_peri_rdata\[22\]
*460 reg_peri_rdata\[23\]
*461 reg_peri_rdata\[24\]
*462 reg_peri_rdata\[25\]
*463 reg_peri_rdata\[26\]
*464 reg_peri_rdata\[27\]
*465 reg_peri_rdata\[28\]
*466 reg_peri_rdata\[29\]
*467 reg_peri_rdata\[2\]
*468 reg_peri_rdata\[30\]
*469 reg_peri_rdata\[31\]
*470 reg_peri_rdata\[3\]
*471 reg_peri_rdata\[4\]
*472 reg_peri_rdata\[5\]
*473 reg_peri_rdata\[6\]
*474 reg_peri_rdata\[7\]
*475 reg_peri_rdata\[8\]
*476 reg_peri_rdata\[9\]
*477 reg_peri_wdata\[0\]
*478 reg_peri_wdata\[10\]
*479 reg_peri_wdata\[11\]
*480 reg_peri_wdata\[12\]
*481 reg_peri_wdata\[13\]
*482 reg_peri_wdata\[14\]
*483 reg_peri_wdata\[15\]
*484 reg_peri_wdata\[16\]
*485 reg_peri_wdata\[17\]
*486 reg_peri_wdata\[18\]
*487 reg_peri_wdata\[19\]
*488 reg_peri_wdata\[1\]
*489 reg_peri_wdata\[20\]
*490 reg_peri_wdata\[21\]
*491 reg_peri_wdata\[22\]
*492 reg_peri_wdata\[23\]
*493 reg_peri_wdata\[24\]
*494 reg_peri_wdata\[25\]
*495 reg_peri_wdata\[26\]
*496 reg_peri_wdata\[27\]
*497 reg_peri_wdata\[28\]
*498 reg_peri_wdata\[29\]
*499 reg_peri_wdata\[2\]
*500 reg_peri_wdata\[30\]
*501 reg_peri_wdata\[31\]
*502 reg_peri_wdata\[3\]
*503 reg_peri_wdata\[4\]
*504 reg_peri_wdata\[5\]
*505 reg_peri_wdata\[6\]
*506 reg_peri_wdata\[7\]
*507 reg_peri_wdata\[8\]
*508 reg_peri_wdata\[9\]
*509 reg_peri_wr
*510 rtc_clk
*511 rtc_intr
*512 sspim_rst_n
*513 sspim_sck
*514 sspim_si
*515 sspim_so
*516 sspim_ssn\[0\]
*517 sspim_ssn\[1\]
*518 sspim_ssn\[2\]
*519 sspim_ssn\[3\]
*520 uart_rst_n\[0\]
*521 uart_rst_n\[1\]
*522 uart_rxd\[0\]
*523 uart_rxd\[1\]
*524 uart_txd\[0\]
*525 uart_txd\[1\]
*526 usb_clk
*527 usb_dn_i
*528 usb_dn_o
*529 usb_dp_i
*530 usb_dp_o
*531 usb_intr_o
*532 usb_oen
*533 usb_rst_n
*534 analog_wrapper
*535 temp_sensor
*536 u_peri
*537 u_pinmux
*538 u_uart_i2c_usb_spi
*539 wb_buttons_leds

*PORTS
io_in[0] I
io_in[10] I
io_in[11] I
io_in[12] I
io_in[13] I
io_in[14] I
io_in[15] I
io_in[16] I
io_in[17] I
io_in[18] I
io_in[19] I
io_in[1] I
io_in[20] I
io_in[21] I
io_in[22] I
io_in[23] I
io_in[24] I
io_in[25] I
io_in[26] I
io_in[27] I
io_in[28] I
io_in[29] I
io_in[2] I
io_in[30] I
io_in[31] I
io_in[32] I
io_in[33] I
io_in[34] I
io_in[35] I
io_in[36] I
io_in[37] I
io_in[3] I
io_in[4] I
io_in[5] I
io_in[6] I
io_in[7] I
io_in[8] I
io_in[9] I
io_oeb[0] O
io_oeb[10] O
io_oeb[11] O
io_oeb[12] O
io_oeb[13] O
io_oeb[14] O
io_oeb[15] O
io_oeb[16] O
io_oeb[17] O
io_oeb[18] O
io_oeb[19] O
io_oeb[1] O
io_oeb[20] O
io_oeb[21] O
io_oeb[22] O
io_oeb[23] O
io_oeb[24] O
io_oeb[25] O
io_oeb[26] O
io_oeb[27] O
io_oeb[28] O
io_oeb[29] O
io_oeb[2] O
io_oeb[30] O
io_oeb[31] O
io_oeb[32] O
io_oeb[33] O
io_oeb[34] O
io_oeb[35] O
io_oeb[36] O
io_oeb[37] O
io_oeb[3] O
io_oeb[4] O
io_oeb[5] O
io_oeb[6] O
io_oeb[7] O
io_oeb[8] O
io_oeb[9] O
io_out[0] O
io_out[10] O
io_out[11] O
io_out[12] O
io_out[13] O
io_out[14] O
io_out[15] O
io_out[16] O
io_out[17] O
io_out[18] O
io_out[19] O
io_out[1] O
io_out[20] O
io_out[21] O
io_out[22] O
io_out[23] O
io_out[24] O
io_out[25] O
io_out[26] O
io_out[27] O
io_out[28] O
io_out[29] O
io_out[2] O
io_out[30] O
io_out[31] O
io_out[32] O
io_out[33] O
io_out[34] O
io_out[35] O
io_out[36] O
io_out[37] O
io_out[3] O
io_out[4] O
io_out[5] O
io_out[6] O
io_out[7] O
io_out[8] O
io_out[9] O
la_data_in[0] I
la_data_in[10] I
la_data_in[11] I
la_data_in[12] I
la_data_in[13] I
la_data_in[14] I
la_data_in[15] I
la_data_in[16] I
la_data_in[17] I
la_data_in[18] I
la_data_in[19] I
la_data_in[1] I
la_data_in[20] I
la_data_in[21] I
la_data_in[22] I
la_data_in[23] I
la_data_in[24] I
la_data_in[25] I
la_data_in[26] I
la_data_in[27] I
la_data_in[28] I
la_data_in[29] I
la_data_in[2] I
la_data_in[30] I
la_data_in[31] I
la_data_in[32] I
la_data_in[33] I
la_data_in[34] I
la_data_in[35] I
la_data_in[36] I
la_data_in[37] I
la_data_in[38] I
la_data_in[39] I
la_data_in[3] I
la_data_in[40] I
la_data_in[41] I
la_data_in[42] I
la_data_in[43] I
la_data_in[44] I
la_data_in[45] I
la_data_in[46] I
la_data_in[47] I
la_data_in[48] I
la_data_in[49] I
la_data_in[4] I
la_data_in[50] I
la_data_in[51] I
la_data_in[52] I
la_data_in[53] I
la_data_in[54] I
la_data_in[55] I
la_data_in[56] I
la_data_in[57] I
la_data_in[58] I
la_data_in[59] I
la_data_in[5] I
la_data_in[60] I
la_data_in[61] I
la_data_in[62] I
la_data_in[63] I
la_data_in[6] I
la_data_in[7] I
la_data_in[8] I
la_data_in[9] I
la_data_out[0] O
la_data_out[10] O
la_data_out[11] O
la_data_out[12] O
la_data_out[13] O
la_data_out[14] O
la_data_out[15] O
la_data_out[16] O
la_data_out[17] O
la_data_out[18] O
la_data_out[19] O
la_data_out[1] O
la_data_out[20] O
la_data_out[21] O
la_data_out[22] O
la_data_out[23] O
la_data_out[24] O
la_data_out[25] O
la_data_out[26] O
la_data_out[27] O
la_data_out[28] O
la_data_out[29] O
la_data_out[2] O
la_data_out[30] O
la_data_out[31] O
la_data_out[32] O
la_data_out[33] O
la_data_out[34] O
la_data_out[35] O
la_data_out[36] O
la_data_out[37] O
la_data_out[38] O
la_data_out[39] O
la_data_out[3] O
la_data_out[40] O
la_data_out[41] O
la_data_out[42] O
la_data_out[43] O
la_data_out[44] O
la_data_out[45] O
la_data_out[46] O
la_data_out[47] O
la_data_out[48] O
la_data_out[49] O
la_data_out[4] O
la_data_out[50] O
la_data_out[51] O
la_data_out[52] O
la_data_out[53] O
la_data_out[54] O
la_data_out[55] O
la_data_out[56] O
la_data_out[57] O
la_data_out[58] O
la_data_out[59] O
la_data_out[5] O
la_data_out[60] O
la_data_out[61] O
la_data_out[62] O
la_data_out[63] O
la_data_out[6] O
la_data_out[7] O
la_data_out[8] O
la_data_out[9] O
la_oenb[0] I
la_oenb[10] I
la_oenb[11] I
la_oenb[12] I
la_oenb[13] I
la_oenb[14] I
la_oenb[15] I
la_oenb[16] I
la_oenb[17] I
la_oenb[18] I
la_oenb[19] I
la_oenb[1] I
la_oenb[20] I
la_oenb[21] I
la_oenb[22] I
la_oenb[23] I
la_oenb[24] I
la_oenb[25] I
la_oenb[26] I
la_oenb[27] I
la_oenb[28] I
la_oenb[29] I
la_oenb[2] I
la_oenb[30] I
la_oenb[31] I
la_oenb[32] I
la_oenb[33] I
la_oenb[34] I
la_oenb[35] I
la_oenb[36] I
la_oenb[37] I
la_oenb[38] I
la_oenb[39] I
la_oenb[3] I
la_oenb[40] I
la_oenb[41] I
la_oenb[42] I
la_oenb[43] I
la_oenb[44] I
la_oenb[45] I
la_oenb[46] I
la_oenb[47] I
la_oenb[48] I
la_oenb[49] I
la_oenb[4] I
la_oenb[50] I
la_oenb[51] I
la_oenb[52] I
la_oenb[53] I
la_oenb[54] I
la_oenb[55] I
la_oenb[56] I
la_oenb[57] I
la_oenb[58] I
la_oenb[59] I
la_oenb[5] I
la_oenb[60] I
la_oenb[61] I
la_oenb[62] I
la_oenb[63] I
la_oenb[6] I
la_oenb[7] I
la_oenb[8] I
la_oenb[9] I
user_clock2 I
user_irq[0] O
user_irq[1] O
user_irq[2] O
wb_clk_i I
wb_rst_i I
wbs_ack_o O
wbs_adr_i[0] I
wbs_adr_i[10] I
wbs_adr_i[11] I
wbs_adr_i[12] I
wbs_adr_i[13] I
wbs_adr_i[14] I
wbs_adr_i[15] I
wbs_adr_i[16] I
wbs_adr_i[17] I
wbs_adr_i[18] I
wbs_adr_i[19] I
wbs_adr_i[1] I
wbs_adr_i[20] I
wbs_adr_i[21] I
wbs_adr_i[22] I
wbs_adr_i[23] I
wbs_adr_i[24] I
wbs_adr_i[25] I
wbs_adr_i[26] I
wbs_adr_i[27] I
wbs_adr_i[28] I
wbs_adr_i[29] I
wbs_adr_i[2] I
wbs_adr_i[30] I
wbs_adr_i[31] I
wbs_adr_i[3] I
wbs_adr_i[4] I
wbs_adr_i[5] I
wbs_adr_i[6] I
wbs_adr_i[7] I
wbs_adr_i[8] I
wbs_adr_i[9] I
wbs_cyc_i I
wbs_dat_i[0] I
wbs_dat_i[10] I
wbs_dat_i[11] I
wbs_dat_i[12] I
wbs_dat_i[13] I
wbs_dat_i[14] I
wbs_dat_i[15] I
wbs_dat_i[16] I
wbs_dat_i[17] I
wbs_dat_i[18] I
wbs_dat_i[19] I
wbs_dat_i[1] I
wbs_dat_i[20] I
wbs_dat_i[21] I
wbs_dat_i[22] I
wbs_dat_i[23] I
wbs_dat_i[24] I
wbs_dat_i[25] I
wbs_dat_i[26] I
wbs_dat_i[27] I
wbs_dat_i[28] I
wbs_dat_i[29] I
wbs_dat_i[2] I
wbs_dat_i[30] I
wbs_dat_i[31] I
wbs_dat_i[3] I
wbs_dat_i[4] I
wbs_dat_i[5] I
wbs_dat_i[6] I
wbs_dat_i[7] I
wbs_dat_i[8] I
wbs_dat_i[9] I
wbs_dat_o[0] O
wbs_dat_o[10] O
wbs_dat_o[11] O
wbs_dat_o[12] O
wbs_dat_o[13] O
wbs_dat_o[14] O
wbs_dat_o[15] O
wbs_dat_o[16] O
wbs_dat_o[17] O
wbs_dat_o[18] O
wbs_dat_o[19] O
wbs_dat_o[1] O
wbs_dat_o[20] O
wbs_dat_o[21] O
wbs_dat_o[22] O
wbs_dat_o[23] O
wbs_dat_o[24] O
wbs_dat_o[25] O
wbs_dat_o[26] O
wbs_dat_o[27] O
wbs_dat_o[28] O
wbs_dat_o[29] O
wbs_dat_o[2] O
wbs_dat_o[30] O
wbs_dat_o[31] O
wbs_dat_o[3] O
wbs_dat_o[4] O
wbs_dat_o[5] O
wbs_dat_o[6] O
wbs_dat_o[7] O
wbs_dat_o[8] O
wbs_dat_o[9] O
wbs_sel_i[0] I
wbs_sel_i[1] I
wbs_sel_i[2] I
wbs_sel_i[3] I
wbs_stb_i I
wbs_we_i I

*D_NET *14 0.577793
*CONN
*P io_in[21] I
*I *537:digital_io_in[21] I *D pinmux_top
*CAP
1 io_in[21] 0.00165134
2 *537:digital_io_in[21] 0.003958
3 *14:13 0.00418801
4 *14:11 0.000230011
5 *14:9 0.0201294
6 *14:7 0.0217808
7 *14:9 *15:9 0.0516688
8 *14:9 *53:13 0.00399316
9 *14:9 *90:13 0
10 *14:9 *91:13 2.36954e-05
11 *14:13 *15:13 0.235077
12 *14:13 *16:13 0.235093
*RES
1 io_in[21] *14:7 14.625 
2 *14:7 *14:9 235.53 
3 *14:9 *14:11 4.5 
4 *14:11 *14:13 597.69 
5 *14:13 *537:digital_io_in[21] 35.145 
*END

*D_NET *15 0.423448
*CONN
*P io_in[22] I
*I *537:digital_io_in[22] I *D pinmux_top
*CAP
1 io_in[22] 0.00131423
2 *537:digital_io_in[22] 0.00390209
3 *15:13 0.0441464
4 *15:11 0.0402444
5 *15:9 0.00255685
6 *15:7 0.00387108
7 *15:9 *90:13 0
8 *15:9 *91:13 0.0373804
9 *15:13 *16:13 0.0032873
10 *14:9 *15:9 0.0516688
11 *14:13 *15:13 0.235077
*RES
1 io_in[22] *15:7 14.445 
2 *15:7 *15:9 128.97 
3 *15:9 *15:11 4.5 
4 *15:11 *15:13 616.23 
5 *15:13 *537:digital_io_in[22] 34.965 
*END

*D_NET *16 0.501963
*CONN
*P io_in[23] I
*I *537:digital_io_in[23] I *D pinmux_top
*CAP
1 io_in[23] 0.00250954
2 *537:digital_io_in[23] 0.00394525
3 *16:13 0.00835029
4 *16:11 0.00691458
5 *16:11 *52:13 0.00920382
6 *16:13 *52:9 0.231043
7 *16:13 *90:9 0.00108744
8 *16:13 *91:9 0.000529008
9 *14:13 *16:13 0.235093
10 *15:13 *16:13 0.0032873
*RES
1 io_in[23] *16:11 39.915 
2 *16:11 *16:13 636.57 
3 *16:13 *537:digital_io_in[23] 35.325 
*END

*D_NET *17 0.258579
*CONN
*P io_in[24] I
*I *537:digital_io_in[24] I *D pinmux_top
*CAP
1 io_in[24] 0.007683
2 *537:digital_io_in[24] 0.0047016
3 *17:9 0.0662491
4 *17:7 0.0615475
5 *17:5 0.007683
6 *537:digital_io_in[24] io_out[33] 0
7 *17:9 *98:17 0.110715
*RES
1 io_in[24] *17:5 60.165 
2 *17:5 *17:7 4.5 
3 *17:7 *17:9 636.93 
4 *17:9 *537:digital_io_in[24] 40.365 
*END

*D_NET *18 0.304033
*CONN
*P io_in[25] I
*I *537:digital_io_in[25] I *D pinmux_top
*CAP
1 io_in[25] 0.00117702
2 *537:digital_io_in[25] 0.0114947
3 *18:11 0.0114947
4 *18:9 0.0437389
5 *18:7 0.0449159
6 *18:9 *57:9 0.191212
*RES
1 io_in[25] *18:7 13.365 
2 *18:7 *18:9 587.25 
3 *18:9 *18:11 4.5 
4 *18:11 *537:digital_io_in[25] 87.165 
*END

*D_NET *19 0.15725
*CONN
*P io_in[26] I
*I *537:digital_io_in[26] I *D pinmux_top
*CAP
1 io_in[26] 0.00260739
2 *537:digital_io_in[26] 0.00999683
3 *19:11 0.00999683
4 *19:9 0.0660205
5 *19:7 0.0686279
*RES
1 io_in[26] *19:7 24.165 
2 *19:7 *19:9 537.57 
3 *19:9 *19:11 4.5 
4 *19:11 *537:digital_io_in[26] 76.365 
*END

*D_NET *20 0.146464
*CONN
*P io_in[27] I
*I *537:digital_io_in[27] I *D pinmux_top
*CAP
1 io_in[27] 0.00360945
2 *537:digital_io_in[27] 0.00965623
3 *20:11 0.00965623
4 *20:9 0.0599663
5 *20:7 0.0635758
*RES
1 io_in[27] *20:7 26.865 
2 *20:7 *20:9 487.89 
3 *20:9 *20:11 4.5 
4 *20:11 *537:digital_io_in[27] 73.665 
*END

*D_NET *21 0.134373
*CONN
*P io_in[28] I
*I *537:digital_io_in[28] I *D pinmux_top
*CAP
1 io_in[28] 0.0040323
2 *537:digital_io_in[28] 0.00928179
3 *21:11 0.00928179
4 *21:9 0.0538722
5 *21:7 0.0579045
*RES
1 io_in[28] *21:7 29.565 
2 *21:7 *21:9 438.21 
3 *21:9 *21:11 4.5 
4 *21:11 *537:digital_io_in[28] 70.965 
*END

*D_NET *22 0.121046
*CONN
*P io_in[29] I
*I *537:digital_io_in[29] I *D pinmux_top
*CAP
1 io_in[29] 0.00369687
2 *537:digital_io_in[29] 0.00894119
3 *22:11 0.00894119
4 *22:9 0.0478847
5 *22:7 0.0515816
*RES
1 io_in[29] *22:7 32.265 
2 *22:7 *22:9 388.53 
3 *22:9 *22:11 4.5 
4 *22:11 *537:digital_io_in[29] 68.265 
*END

*D_NET *24 0.190774
*CONN
*P io_in[30] I
*I *537:digital_io_in[30] I *D pinmux_top
*CAP
1 io_in[30] 0.00407598
2 *537:digital_io_in[30] 0.00854517
3 *24:11 0.00854517
4 *24:9 0.0242945
5 *24:7 0.0283705
6 *24:9 *96:9 0.116943
*RES
1 io_in[30] *24:7 35.145 
2 *24:7 *24:9 338.85 
3 *24:9 *24:11 4.5 
4 *24:11 *537:digital_io_in[30] 65.385 
*END

*D_NET *25 0.150237
*CONN
*P io_in[31] I
*I *537:digital_io_in[31] I *D pinmux_top
*CAP
1 io_in[31] 0.00487567
2 *537:digital_io_in[31] 0.00177067
3 *25:13 0.00883316
4 *25:11 0.00706249
5 *25:9 0.024035
6 *25:7 0.0289107
7 *25:9 *94:9 0.0747494
*RES
1 io_in[31] *25:7 40.545 
2 *25:7 *25:9 285.21 
3 *25:9 *25:11 4.5 
4 *25:11 *25:13 55.17 
5 *25:13 *537:digital_io_in[31] 17.955 
*END

*D_NET *26 0.113471
*CONN
*P io_in[32] I
*I *537:digital_io_in[32] I *D pinmux_top
*CAP
1 io_in[32] 0.00599905
2 *537:digital_io_in[32] 0.00164072
3 *26:13 0.00759676
4 *26:11 0.00595605
5 *26:9 0.023237
6 *26:7 0.0292361
7 *26:9 *93:9 0.0398057
*RES
1 io_in[32] *26:7 48.645 
2 *26:7 *26:9 236.07 
3 *26:9 *26:11 4.5 
4 *26:11 *26:13 47.07 
5 *26:13 *537:digital_io_in[32] 17.415 
*END

*D_NET *27 0.108615
*CONN
*P io_in[33] I
*I *537:digital_io_in[33] I *D pinmux_top
*CAP
1 io_in[33] 0.00637351
2 *537:digital_io_in[33] 0.00626465
3 *27:11 0.00626465
4 *27:9 0.0157763
5 *27:7 0.0157763
6 *27:5 0.00637351
7 *27:9 *60:9 0.0517858
*RES
1 io_in[33] *27:5 46.845 
2 *27:5 *27:7 4.5 
3 *27:7 *27:9 189.81 
4 *27:9 *27:11 4.5 
5 *27:11 *537:digital_io_in[33] 49.185 
*END

*D_NET *28 0.0596218
*CONN
*P io_in[34] I
*I *537:digital_io_in[34] I *D pinmux_top
*CAP
1 io_in[34] 0.00220286
2 *537:digital_io_in[34] 0.00253297
3 *28:13 0.0114589
4 *28:11 0.00892597
5 *28:9 0.0155785
6 *28:7 0.0177814
7 *537:digital_io_in[34] *103:13 0
8 *28:7 *95:5 0.00114104
*RES
1 io_in[34] *28:7 24.165 
2 *28:7 *28:9 126.99 
3 *28:9 *28:11 4.5 
4 *28:11 *28:13 70.29 
5 *28:13 *537:digital_io_in[34] 28.395 
*END

*D_NET *29 0.0472741
*CONN
*P io_in[35] I
*I *537:digital_io_in[35] I *D pinmux_top
*CAP
1 io_in[35] 0.00299849
2 *537:digital_io_in[35] 0.00156218
3 *29:13 0.0099965
4 *29:11 0.00843432
5 *29:9 0.010642
6 *29:7 0.0136405
7 *29:13 *66:5 0
*RES
1 io_in[35] *29:7 26.865 
2 *29:7 *29:9 85.95 
3 *29:9 *29:11 4.5 
4 *29:11 *29:13 66.33 
5 *29:13 *537:digital_io_in[35] 21.015 
*END

*D_NET *30 0.0437187
*CONN
*P io_in[36] I
*I *537:digital_io_in[36] I *D pinmux_top
*CAP
1 io_in[36] 0.000930345
2 *537:digital_io_in[36] 0.0114031
3 *30:11 0.0140198
4 *30:7 0.00354709
5 *30:11 io_out[36] 0.00232211
6 *30:11 *105:9 0.0114963
*RES
1 io_in[36] *30:7 11.025 
2 *30:7 *30:11 45.27 
3 *30:11 *537:digital_io_in[36] 89.505 
*END

*D_NET *31 0.0278133
*CONN
*P io_in[37] I
*I *537:digital_io_in[37] I *D pinmux_top
*CAP
1 io_in[37] 0.00189456
2 *537:digital_io_in[37] 0.0114462
3 *31:11 0.0133408
4 *31:11 io_out[37] 0.00113175
*RES
1 io_in[37] *31:11 24.075 
2 *31:11 *537:digital_io_in[37] 89.865 
*END

*D_NET *34 0.155546
*CONN
*P io_in[5] I
*I *539:buttons[0] I *D wb_buttons_leds
*CAP
1 io_in[5] 0.000962785
2 *539:buttons[0] 0
3 *34:17 0.00610159
4 *34:15 0.00640447
5 *34:9 0.0148473
6 *34:7 0.0155072
7 *34:9 *35:9 0.0941232
8 *34:15 *539:buttons[1] 0.00144734
9 *34:15 *314:72 3.1612e-05
10 *34:17 *539:buttons[1] 0.0126188
11 *34:17 *72:12 0.00246711
12 *34:17 *72:14 2.64533e-06
13 *34:17 *73:12 0.00103176
*RES
1 io_in[5] *34:7 11.925 
2 *34:7 *34:9 233.01 
3 *34:9 *34:15 12.87 
4 *34:15 *34:17 71.01 
5 *34:17 *539:buttons[0] 4.5 
*END

*D_NET *35 0.270426
*CONN
*P io_in[6] I
*I *539:buttons[1] I *D wb_buttons_leds
*CAP
1 io_in[6] 0.000905084
2 *539:buttons[1] 0.00222124
3 *35:9 0.00687431
4 *35:7 0.00555816
5 *539:buttons[1] *314:72 0.00015426
6 *35:9 *73:14 0.119869
7 *35:9 *113:5 0.0266545
8 *34:9 *35:9 0.0941232
9 *34:15 *539:buttons[1] 0.00144734
10 *34:17 *539:buttons[1] 0.0126188
*RES
1 io_in[6] *35:7 11.745 
2 *35:7 *35:9 296.91 
3 *35:9 *539:buttons[1] 48.6 
*END

*D_NET *40 0.213521
*CONN
*P io_oeb[10] O
*I *539:xtal_clk_enb[1] O *D wb_buttons_leds
*CAP
1 io_oeb[10] 0.00101091
2 *539:xtal_clk_enb[1] 0.00290784
3 *40:21 0.0334187
4 *40:19 0.0358153
5 *40:13 0.0251929
6 *40:11 0.0246933
7 *40:11 *78:11 0
8 *40:11 *114:11 0.000412791
9 *40:13 *74:5 0
10 *40:13 *114:13 0.0520575
11 *40:13 *317:37 0.00976447
12 *40:21 io_oeb[9] 0.000246484
13 *40:21 io_out[9] 0.000314642
14 *40:21 *78:21 0.0234688
15 *40:21 *113:5 0.00421758
*RES
1 *539:xtal_clk_enb[1] *40:11 30.015 
2 *40:11 *40:13 293.13 
3 *40:13 *40:19 33.03 
4 *40:19 *40:21 295.83 
5 *40:21 io_oeb[10] 12.825 
*END

*D_NET *43 0.0294493
*CONN
*P io_oeb[13] O
*I *535:io_oeb[0] O *D temp_sensor
*CAP
1 io_oeb[13] 0.00446843
2 *535:io_oeb[0] 0.0102562
3 *43:5 0.0147247
*RES
1 *535:io_oeb[0] *43:5 78.885 
2 *43:5 io_oeb[13] 39.465 
*END

*D_NET *44 0.0466484
*CONN
*P io_oeb[14] O
*I *535:io_oeb[1] O *D temp_sensor
*CAP
1 io_oeb[14] 0.00478732
2 *535:io_oeb[1] 0.0185369
3 *44:5 0.0233242
*RES
1 *535:io_oeb[1] *44:5 142.605 
2 *44:5 io_oeb[14] 42.345 
*END

*D_NET *45 0.065488
*CONN
*P io_oeb[15] O
*I *535:io_oeb[2] O *D temp_sensor
*CAP
1 io_oeb[15] 0.00189227
2 *535:io_oeb[2] 0.0186289
3 *45:11 0.0035713
4 *45:5 0.0203079
5 io_oeb[15] *46:9 0.00159309
6 io_oeb[15] *49:17 0.000175195
7 io_oeb[15] *51:17 0.00503276
8 *45:11 *46:9 0.0123263
9 *45:11 *48:17 0.00034707
10 *45:11 *49:17 0.00161326
*RES
1 *535:io_oeb[2] *45:5 143.325 
2 *45:5 *45:11 38.79 
3 *45:11 io_oeb[15] 37.755 
*END

*D_NET *46 0.130296
*CONN
*P io_oeb[16] O
*I *535:io_oeb[3] O *D temp_sensor
*CAP
1 io_oeb[16] 0.00168093
2 *535:io_oeb[3] 0.0186059
3 *46:9 0.00511697
4 *46:7 0.00343603
5 *46:5 0.0186059
6 io_oeb[16] *47:9 0.000632269
7 io_oeb[16] *51:17 0.00276086
8 *46:9 *47:9 0.056535
9 *46:9 *51:17 0.00900306
10 io_oeb[15] *46:9 0.00159309
11 *45:11 *46:9 0.0123263
*RES
1 *535:io_oeb[3] *46:5 143.145 
2 *46:5 *46:7 4.5 
3 *46:7 *46:9 144.36 
4 *46:9 io_oeb[16] 31.365 
*END

*D_NET *47 0.144892
*CONN
*P io_oeb[17] O
*I *535:io_oeb[4] O *D temp_sensor
*CAP
1 io_oeb[17] 0.00152009
2 *535:io_oeb[4] 0.0185829
3 *47:9 0.0214246
4 *47:7 0.0199045
5 *47:5 0.0185829
6 *47:9 *51:17 0.00771
7 io_oeb[16] *47:9 0.000632269
8 *46:9 *47:9 0.056535
*RES
1 *535:io_oeb[4] *47:5 142.965 
2 *47:5 *47:7 4.5 
3 *47:7 *47:9 254.61 
4 *47:9 io_oeb[17] 24.615 
*END

*D_NET *48 0.228569
*CONN
*P io_oeb[18] O
*I *535:io_oeb[5] O *D temp_sensor
*CAP
1 io_oeb[18] 0.00129124
2 *535:io_oeb[5] 0.00135492
3 *48:17 0.02458
4 *48:15 0.0232887
5 *48:13 0.0179657
6 *48:11 0.0193206
7 *48:11 *85:9 0
8 *48:11 *89:11 0
9 *48:17 *49:17 0.140421
10 *48:17 *83:11 0
11 *48:17 *86:17 0
12 *48:17 *89:17 0
13 *45:11 *48:17 0.00034707
*RES
1 *535:io_oeb[5] *48:11 17.775 
2 *48:11 *48:13 137.79 
3 *48:13 *48:15 4.5 
4 *48:15 *48:17 355.95 
5 *48:17 io_oeb[18] 14.265 
*END

*D_NET *49 0.376294
*CONN
*P io_oeb[19] O
*I *535:io_oeb[6] O *D temp_sensor
*CAP
1 io_oeb[19] 0.00129827
2 *535:io_oeb[6] 0.00114546
3 *49:17 0.00969132
4 *49:15 0.00839305
5 *49:13 0.0182275
6 *49:11 0.019373
7 *49:11 *89:11 0.000368325
8 *49:13 *51:11 0
9 *49:17 *51:17 0.175589
10 *49:17 *89:17 0
11 io_oeb[15] *49:17 0.000175195
12 *45:11 *49:17 0.00161326
13 *48:17 *49:17 0.140421
*RES
1 *535:io_oeb[6] *49:11 18.315 
2 *49:11 *49:13 139.59 
3 *49:13 *49:15 4.5 
4 *49:15 *49:17 456.93 
5 *49:17 io_oeb[19] 14.445 
*END

*D_NET *51 0.318462
*CONN
*P io_oeb[20] O
*I *535:io_oeb[7] O *D temp_sensor
*CAP
1 io_oeb[20] 0.00130532
2 *535:io_oeb[7] 0.00267
3 *51:17 0.034804
4 *51:15 0.0334987
5 *51:13 0.0174044
6 *51:11 0.0200744
7 *51:11 *89:11 0.00508213
8 *51:13 *84:15 0.00352772
9 *51:17 *89:17 0
10 io_oeb[15] *51:17 0.00503276
11 io_oeb[16] *51:17 0.00276086
12 *46:9 *51:17 0.00900306
13 *47:9 *51:17 0.00771
14 *49:13 *51:11 0
15 *49:17 *51:17 0.175589
*RES
1 *535:io_oeb[7] *51:11 34.875 
2 *51:11 *51:13 138.51 
3 *51:13 *51:15 4.5 
4 *51:15 *51:17 544.77 
5 *51:17 io_oeb[20] 14.625 
*END

*D_NET *52 0.566538
*CONN
*P io_oeb[21] O
*I *537:digital_io_oen[21] O *D pinmux_top
*CAP
1 io_oeb[21] 0.0010524
2 *537:digital_io_oen[21] 0.0040355
3 *52:13 0.0103311
4 *52:11 0.00927869
5 *52:9 0.000244608
6 *52:7 0.0042801
7 *52:9 *90:9 0.230991
8 *52:13 *90:13 0.066077
9 *16:11 *52:13 0.00920382
10 *16:13 *52:9 0.231043
*RES
1 *537:digital_io_oen[21] *52:7 35.505 
2 *52:7 *52:9 587.43 
3 *52:9 *52:11 4.5 
4 *52:11 *52:13 164.97 
5 *52:13 io_oeb[21] 12.645 
*END

*D_NET *53 0.179868
*CONN
*P io_oeb[22] O
*I *537:digital_io_oen[22] O *D pinmux_top
*CAP
1 io_oeb[22] 0.00150413
2 *537:digital_io_oen[22] 0.00330887
3 *53:13 0.00649712
4 *53:11 0.004993
5 *53:9 0.0781315
6 *53:7 0.0814404
7 *14:9 *53:13 0.00399316
*RES
1 *537:digital_io_oen[22] *53:7 31.005 
2 *53:7 *53:9 602.91 
3 *53:9 *53:11 4.5 
4 *53:11 *53:13 54.27 
5 *53:13 io_oeb[22] 24.615 
*END

*D_NET *54 0.185879
*CONN
*P io_oeb[23] O
*I *537:digital_io_oen[23] O *D pinmux_top
*CAP
1 io_oeb[23] 0.0817859
2 *537:digital_io_oen[23] 0.00202735
3 *54:15 0.0817859
4 *54:13 0.00912635
5 *54:11 0.0111537
*RES
1 *537:digital_io_oen[23] *54:11 22.095 
2 *54:11 *54:13 68.85 
3 *54:13 *54:15 4.5 
4 *54:15 io_oeb[23] 629.325 
*END

*D_NET *55 0.234555
*CONN
*P io_oeb[24] O
*I *537:digital_io_oen[24] O *D pinmux_top
*CAP
1 io_oeb[24] 0.00737622
2 *537:digital_io_oen[24] 0.0050422
3 *55:11 0.00737622
4 *55:9 0.0608407
5 *55:7 0.0658829
6 *55:9 *100:17 0.0880371
*RES
1 *537:digital_io_oen[24] *55:7 43.065 
2 *55:7 *55:9 603.81 
3 *55:9 *55:11 4.5 
4 *55:11 io_oeb[24] 57.465 
*END

*D_NET *56 0.211006
*CONN
*P io_oeb[25] O
*I *537:digital_io_oen[25] O *D pinmux_top
*CAP
1 io_oeb[25] 0.00708636
2 *537:digital_io_oen[25] 0.00657834
3 *56:11 0.00708636
4 *56:9 0.0578412
5 *56:7 0.0644196
6 *56:9 *101:9 0.0679945
*RES
1 *537:digital_io_oen[25] *56:7 45.765 
2 *56:7 *56:9 554.13 
3 *56:9 *56:11 4.5 
4 *56:11 io_oeb[25] 54.765 
*END

*D_NET *57 0.330164
*CONN
*P io_oeb[26] O
*I *537:digital_io_oen[26] O *D pinmux_top
*CAP
1 io_oeb[26] 0.00123244
2 *537:digital_io_oen[26] 0.0114392
3 *57:9 0.0249324
4 *57:7 0.0236999
5 *57:5 0.0114392