*SPEF "ieee 1481-1999"
*DESIGN "user_project_wrapper"
*DATE "11:11:11 Fri 11 11, 1111"
*VENDOR "OpenRCX"
*PROGRAM "Parallel Extraction"
*VERSION "1.0"
*DESIGN_FLOW "NAME_SCOPE LOCAL" "PIN_CAP NONE"
*DIVIDER /
*DELIMITER :
*BUS_DELIMITER []
*T_UNIT 1 NS
*C_UNIT 1 PF
*R_UNIT 1 OHM
*L_UNIT 1 HENRY

*NAME_MAP
*1 io_in[0]
*2 io_in[10]
*3 io_in[11]
*4 io_in[12]
*5 io_in[13]
*6 io_in[14]
*7 io_in[15]
*8 io_in[16]
*9 io_in[17]
*10 io_in[18]
*11 io_in[19]
*12 io_in[1]
*13 io_in[20]
*14 io_in[21]
*15 io_in[22]
*16 io_in[23]
*17 io_in[24]
*18 io_in[25]
*19 io_in[26]
*20 io_in[27]
*21 io_in[28]
*22 io_in[29]
*23 io_in[2]
*24 io_in[30]
*25 io_in[31]
*26 io_in[32]
*27 io_in[33]
*28 io_in[34]
*29 io_in[35]
*30 io_in[36]
*31 io_in[37]
*32 io_in[3]
*33 io_in[4]
*34 io_in[5]
*35 io_in[6]
*36 io_in[7]
*37 io_in[8]
*38 io_in[9]
*39 io_oeb[0]
*40 io_oeb[10]
*41 io_oeb[11]
*42 io_oeb[12]
*43 io_oeb[13]
*44 io_oeb[14]
*45 io_oeb[15]
*46 io_oeb[16]
*47 io_oeb[17]
*48 io_oeb[18]
*49 io_oeb[19]
*50 io_oeb[1]
*51 io_oeb[20]
*52 io_oeb[21]
*53 io_oeb[22]
*54 io_oeb[23]
*55 io_oeb[24]
*56 io_oeb[25]
*57 io_oeb[26]
*58 io_oeb[27]
*59 io_oeb[28]
*60 io_oeb[29]
*61 io_oeb[2]
*62 io_oeb[30]
*63 io_oeb[31]
*64 io_oeb[32]
*65 io_oeb[33]
*66 io_oeb[34]
*67 io_oeb[35]
*68 io_oeb[36]
*69 io_oeb[37]
*70 io_oeb[3]
*71 io_oeb[4]
*72 io_oeb[5]
*73 io_oeb[6]
*74 io_oeb[7]
*75 io_oeb[8]
*76 io_oeb[9]
*77 io_out[0]
*78 io_out[10]
*79 io_out[11]
*80 io_out[12]
*81 io_out[13]
*82 io_out[14]
*83 io_out[15]
*84 io_out[16]
*85 io_out[17]
*86 io_out[18]
*87 io_out[19]
*88 io_out[1]
*89 io_out[20]
*90 io_out[21]
*91 io_out[22]
*92 io_out[23]
*93 io_out[24]
*94 io_out[25]
*95 io_out[26]
*96 io_out[27]
*97 io_out[28]
*98 io_out[29]
*99 io_out[2]
*100 io_out[30]
*101 io_out[31]
*102 io_out[32]
*103 io_out[33]
*104 io_out[34]
*105 io_out[35]
*106 io_out[36]
*107 io_out[37]
*108 io_out[3]
*109 io_out[4]
*110 io_out[5]
*111 io_out[6]
*112 io_out[7]
*113 io_out[8]
*114 io_out[9]
*115 la_data_in[0]
*116 la_data_in[10]
*117 la_data_in[11]
*118 la_data_in[12]
*119 la_data_in[13]
*120 la_data_in[14]
*121 la_data_in[15]
*122 la_data_in[16]
*123 la_data_in[17]
*124 la_data_in[18]
*125 la_data_in[19]
*126 la_data_in[1]
*127 la_data_in[20]
*128 la_data_in[21]
*129 la_data_in[22]
*130 la_data_in[23]
*131 la_data_in[24]
*132 la_data_in[25]
*133 la_data_in[26]
*134 la_data_in[27]
*135 la_data_in[28]
*136 la_data_in[29]
*137 la_data_in[2]
*138 la_data_in[30]
*139 la_data_in[31]
*140 la_data_in[32]
*141 la_data_in[33]
*142 la_data_in[34]
*143 la_data_in[35]
*144 la_data_in[36]
*145 la_data_in[37]
*146 la_data_in[38]
*147 la_data_in[39]
*148 la_data_in[3]
*149 la_data_in[40]
*150 la_data_in[41]
*151 la_data_in[42]
*152 la_data_in[43]
*153 la_data_in[44]
*154 la_data_in[45]
*155 la_data_in[46]
*156 la_data_in[47]
*157 la_data_in[48]
*158 la_data_in[49]
*159 la_data_in[4]
*160 la_data_in[50]
*161 la_data_in[51]
*162 la_data_in[52]
*163 la_data_in[53]
*164 la_data_in[54]
*165 la_data_in[55]
*166 la_data_in[56]
*167 la_data_in[57]
*168 la_data_in[58]
*169 la_data_in[59]
*170 la_data_in[5]
*171 la_data_in[60]
*172 la_data_in[61]
*173 la_data_in[62]
*174 la_data_in[63]
*175 la_data_in[6]
*176 la_data_in[7]
*177 la_data_in[8]
*178 la_data_in[9]
*179 la_data_out[0]
*180 la_data_out[10]
*181 la_data_out[11]
*182 la_data_out[12]
*183 la_data_out[13]
*184 la_data_out[14]
*185 la_data_out[15]
*186 la_data_out[16]
*187 la_data_out[17]
*188 la_data_out[18]
*189 la_data_out[19]
*190 la_data_out[1]
*191 la_data_out[20]
*192 la_data_out[21]
*193 la_data_out[22]
*194 la_data_out[23]
*195 la_data_out[24]
*196 la_data_out[25]
*197 la_data_out[26]
*198 la_data_out[27]
*199 la_data_out[28]
*200 la_data_out[29]
*201 la_data_out[2]
*202 la_data_out[30]
*203 la_data_out[31]
*204 la_data_out[32]
*205 la_data_out[33]
*206 la_data_out[34]
*207 la_data_out[35]
*208 la_data_out[36]
*209 la_data_out[37]
*210 la_data_out[38]
*211 la_data_out[39]
*212 la_data_out[3]
*213 la_data_out[40]
*214 la_data_out[41]
*215 la_data_out[42]
*216 la_data_out[43]
*217 la_data_out[44]
*218 la_data_out[45]
*219 la_data_out[46]
*220 la_data_out[47]
*221 la_data_out[48]
*222 la_data_out[49]
*223 la_data_out[4]
*224 la_data_out[50]
*225 la_data_out[51]
*226 la_data_out[52]
*227 la_data_out[53]
*228 la_data_out[54]
*229 la_data_out[55]
*230 la_data_out[56]
*231 la_data_out[57]
*232 la_data_out[58]
*233 la_data_out[59]
*234 la_data_out[5]
*235 la_data_out[60]
*236 la_data_out[61]
*237 la_data_out[62]
*238 la_data_out[63]
*239 la_data_out[6]
*240 la_data_out[7]
*241 la_data_out[8]
*242 la_data_out[9]
*243 la_oenb[0]
*244 la_oenb[10]
*245 la_oenb[11]
*246 la_oenb[12]
*247 la_oenb[13]
*248 la_oenb[14]
*249 la_oenb[15]
*250 la_oenb[16]
*251 la_oenb[17]
*252 la_oenb[18]
*253 la_oenb[19]
*254 la_oenb[1]
*255 la_oenb[20]
*256 la_oenb[21]
*257 la_oenb[22]
*258 la_oenb[23]
*259 la_oenb[24]
*260 la_oenb[25]
*261 la_oenb[26]
*262 la_oenb[27]
*263 la_oenb[28]
*264 la_oenb[29]
*265 la_oenb[2]
*266 la_oenb[30]
*267 la_oenb[31]
*268 la_oenb[32]
*269 la_oenb[33]
*270 la_oenb[34]
*271 la_oenb[35]
*272 la_oenb[36]
*273 la_oenb[37]
*274 la_oenb[38]
*275 la_oenb[39]
*276 la_oenb[3]
*277 la_oenb[40]
*278 la_oenb[41]
*279 la_oenb[42]
*280 la_oenb[43]
*281 la_oenb[44]
*282 la_oenb[45]
*283 la_oenb[46]
*284 la_oenb[47]
*285 la_oenb[48]
*286 la_oenb[49]
*287 la_oenb[4]
*288 la_oenb[50]
*289 la_oenb[51]
*290 la_oenb[52]
*291 la_oenb[53]
*292 la_oenb[54]
*293 la_oenb[55]
*294 la_oenb[56]
*295 la_oenb[57]
*296 la_oenb[58]
*297 la_oenb[59]
*298 la_oenb[5]
*299 la_oenb[60]
*300 la_oenb[61]
*301 la_oenb[62]
*302 la_oenb[63]
*303 la_oenb[6]
*304 la_oenb[7]
*305 la_oenb[8]
*306 la_oenb[9]
*307 user_clock2
*308 user_irq[0]
*309 user_irq[1]
*310 user_irq[2]
*313 wb_clk_i
*314 wb_rst_i
*315 wbs_ack_o
*316 wbs_adr_i[0]
*317 wbs_adr_i[10]
*318 wbs_adr_i[11]
*319 wbs_adr_i[12]
*320 wbs_adr_i[13]
*321 wbs_adr_i[14]
*322 wbs_adr_i[15]
*323 wbs_adr_i[16]
*324 wbs_adr_i[17]
*325 wbs_adr_i[18]
*326 wbs_adr_i[19]
*327 wbs_adr_i[1]
*328 wbs_adr_i[20]
*329 wbs_adr_i[21]
*330 wbs_adr_i[22]
*331 wbs_adr_i[23]
*332 wbs_adr_i[24]
*333 wbs_adr_i[25]
*334 wbs_adr_i[26]
*335 wbs_adr_i[27]
*336 wbs_adr_i[28]
*337 wbs_adr_i[29]
*338 wbs_adr_i[2]
*339 wbs_adr_i[30]
*340 wbs_adr_i[31]
*341 wbs_adr_i[3]
*342 wbs_adr_i[4]
*343 wbs_adr_i[5]
*344 wbs_adr_i[6]
*345 wbs_adr_i[7]
*346 wbs_adr_i[8]
*347 wbs_adr_i[9]
*348 wbs_cyc_i
*349 wbs_dat_i[0]
*350 wbs_dat_i[10]
*351 wbs_dat_i[11]
*352 wbs_dat_i[12]
*353 wbs_dat_i[13]
*354 wbs_dat_i[14]
*355 wbs_dat_i[15]
*356 wbs_dat_i[16]
*357 wbs_dat_i[17]
*358 wbs_dat_i[18]
*359 wbs_dat_i[19]
*360 wbs_dat_i[1]
*361 wbs_dat_i[20]
*362 wbs_dat_i[21]
*363 wbs_dat_i[22]
*364 wbs_dat_i[23]
*365 wbs_dat_i[24]
*366 wbs_dat_i[25]
*367 wbs_dat_i[26]
*368 wbs_dat_i[27]
*369 wbs_dat_i[28]
*370 wbs_dat_i[29]
*371 wbs_dat_i[2]
*372 wbs_dat_i[30]
*373 wbs_dat_i[31]
*374 wbs_dat_i[3]
*375 wbs_dat_i[4]
*376 wbs_dat_i[5]
*377 wbs_dat_i[6]
*378 wbs_dat_i[7]
*379 wbs_dat_i[8]
*380 wbs_dat_i[9]
*381 wbs_dat_o[0]
*382 wbs_dat_o[10]
*383 wbs_dat_o[11]
*384 wbs_dat_o[12]
*385 wbs_dat_o[13]
*386 wbs_dat_o[14]
*387 wbs_dat_o[15]
*388 wbs_dat_o[16]
*389 wbs_dat_o[17]
*390 wbs_dat_o[18]
*391 wbs_dat_o[19]
*392 wbs_dat_o[1]
*393 wbs_dat_o[20]
*394 wbs_dat_o[21]
*395 wbs_dat_o[22]
*396 wbs_dat_o[23]
*397 wbs_dat_o[24]
*398 wbs_dat_o[25]
*399 wbs_dat_o[26]
*400 wbs_dat_o[27]
*401 wbs_dat_o[28]
*402 wbs_dat_o[29]
*403 wbs_dat_o[2]
*404 wbs_dat_o[30]
*405 wbs_dat_o[31]
*406 wbs_dat_o[3]
*407 wbs_dat_o[4]
*408 wbs_dat_o[5]
*409 wbs_dat_o[6]
*410 wbs_dat_o[7]
*411 wbs_dat_o[8]
*412 wbs_dat_o[9]
*413 wbs_sel_i[0]
*414 wbs_sel_i[1]
*415 wbs_sel_i[2]
*416 wbs_sel_i[3]
*417 wbs_stb_i
*418 wbs_we_i
*419 i2c_rst_n
*420 i2cm_clk_i
*421 i2cm_clk_o
*422 i2cm_clk_oen
*423 i2cm_data_i
*424 i2cm_data_o
*425 i2cm_data_oen
*426 i2cm_intr_o
*427 pulse1m_mclk
*428 reg_peri_ack
*429 reg_peri_addr\[0\]
*430 reg_peri_addr\[10\]
*431 reg_peri_addr\[1\]
*432 reg_peri_addr\[2\]
*433 reg_peri_addr\[3\]
*434 reg_peri_addr\[4\]
*435 reg_peri_addr\[5\]
*436 reg_peri_addr\[6\]
*437 reg_peri_addr\[7\]
*438 reg_peri_addr\[8\]
*439 reg_peri_addr\[9\]
*440 reg_peri_be\[0\]
*441 reg_peri_be\[1\]
*442 reg_peri_be\[2\]
*443 reg_peri_be\[3\]
*444 reg_peri_cs
*445 reg_peri_rdata\[0\]
*446 reg_peri_rdata\[10\]
*447 reg_peri_rdata\[11\]
*448 reg_peri_rdata\[12\]
*449 reg_peri_rdata\[13\]
*450 reg_peri_rdata\[14\]
*451 reg_peri_rdata\[15\]
*452 reg_peri_rdata\[16\]
*453 reg_peri_rdata\[17\]
*454 reg_peri_rdata\[18\]
*455 reg_peri_rdata\[19\]
*456 reg_peri_rdata\[1\]
*457 reg_peri_rdata\[20\]
*458 reg_peri_rdata\[21\]
*459 reg_peri_rdata\[22\]
*460 reg_peri_rdata\[23\]
*461 reg_peri_rdata\[24\]
*462 reg_peri_rdata\[25\]
*463 reg_peri_rdata\[26\]
*464 reg_peri_rdata\[27\]
*465 reg_peri_rdata\[28\]
*466 reg_peri_rdata\[29\]
*467 reg_peri_rdata\[2\]
*468 reg_peri_rdata\[30\]
*469 reg_peri_rdata\[31\]
*470 reg_peri_rdata\[3\]
*471 reg_peri_rdata\[4\]
*472 reg_peri_rdata\[5\]
*473 reg_peri_rdata\[6\]
*474 reg_peri_rdata\[7\]
*475 reg_peri_rdata\[8\]
*476 reg_peri_rdata\[9\]
*477 reg_peri_wdata\[0\]
*478 reg_peri_wdata\[10\]
*479 reg_peri_wdata\[11\]
*480 reg_peri_wdata\[12\]
*481 reg_peri_wdata\[13\]
*482 reg_peri_wdata\[14\]
*483 reg_peri_wdata\[15\]
*484 reg_peri_wdata\[16\]
*485 reg_peri_wdata\[17\]
*486 reg_peri_wdata\[18\]
*487 reg_peri_wdata\[19\]
*488 reg_peri_wdata\[1\]
*489 reg_peri_wdata\[20\]
*490 reg_peri_wdata\[21\]
*491 reg_peri_wdata\[22\]
*492 reg_peri_wdata\[23\]
*493 reg_peri_wdata\[24\]
*494 reg_peri_wdata\[25\]
*495 reg_peri_wdata\[26\]
*496 reg_peri_wdata\[27\]
*497 reg_peri_wdata\[28\]
*498 reg_peri_wdata\[29\]
*499 reg_peri_wdata\[2\]
*500 reg_peri_wdata\[30\]
*501 reg_peri_wdata\[31\]
*502 reg_peri_wdata\[3\]
*503 reg_peri_wdata\[4\]
*504 reg_peri_wdata\[5\]
*505 reg_peri_wdata\[6\]
*506 reg_peri_wdata\[7\]
*507 reg_peri_wdata\[8\]
*508 reg_peri_wdata\[9\]
*509 reg_peri_wr
*510 rtc_clk
*511 rtc_intr
*512 sspim_rst_n
*513 sspim_sck
*514 sspim_si
*515 sspim_so
*516 sspim_ssn\[0\]
*517 sspim_ssn\[1\]
*518 sspim_ssn\[2\]
*519 sspim_ssn\[3\]
*520 uart_rst_n\[0\]
*521 uart_rst_n\[1\]
*522 uart_rxd\[0\]
*523 uart_rxd\[1\]
*524 uart_txd\[0\]
*525 uart_txd\[1\]
*526 usb_clk
*527 usb_dn_i
*528 usb_dn_o
*529 usb_dp_i
*530 usb_dp_o
*531 usb_intr_o
*532 usb_oen
*533 usb_rst_n
*536 temp_sensor
*537 u_peri
*538 u_pinmux
*539 u_uart_i2c_usb_spi
*540 wb_buttons_leds

*PORTS
io_in[0] I
io_in[10] I
io_in[11] I
io_in[12] I
io_in[13] I
io_in[14] I
io_in[15] I
io_in[16] I
io_in[17] I
io_in[18] I
io_in[19] I
io_in[1] I
io_in[20] I
io_in[21] I
io_in[22] I
io_in[23] I
io_in[24] I
io_in[25] I
io_in[26] I
io_in[27] I
io_in[28] I
io_in[29] I
io_in[2] I
io_in[30] I
io_in[31] I
io_in[32] I
io_in[33] I
io_in[34] I
io_in[35] I
io_in[36] I
io_in[37] I
io_in[3] I
io_in[4] I
io_in[5] I
io_in[6] I
io_in[7] I
io_in[8] I
io_in[9] I
io_oeb[0] O
io_oeb[10] O
io_oeb[11] O
io_oeb[12] O
io_oeb[13] O
io_oeb[14] O
io_oeb[15] O
io_oeb[16] O
io_oeb[17] O
io_oeb[18] O
io_oeb[19] O
io_oeb[1] O
io_oeb[20] O
io_oeb[21] O
io_oeb[22] O
io_oeb[23] O
io_oeb[24] O
io_oeb[25] O
io_oeb[26] O
io_oeb[27] O
io_oeb[28] O
io_oeb[29] O
io_oeb[2] O
io_oeb[30] O
io_oeb[31] O
io_oeb[32] O
io_oeb[33] O
io_oeb[34] O
io_oeb[35] O
io_oeb[36] O
io_oeb[37] O
io_oeb[3] O
io_oeb[4] O
io_oeb[5] O
io_oeb[6] O
io_oeb[7] O
io_oeb[8] O
io_oeb[9] O
io_out[0] O
io_out[10] O
io_out[11] O
io_out[12] O
io_out[13] O
io_out[14] O
io_out[15] O
io_out[16] O
io_out[17] O
io_out[18] O
io_out[19] O
io_out[1] O
io_out[20] O
io_out[21] O
io_out[22] O
io_out[23] O
io_out[24] O
io_out[25] O
io_out[26] O
io_out[27] O
io_out[28] O
io_out[29] O
io_out[2] O
io_out[30] O
io_out[31] O
io_out[32] O
io_out[33] O
io_out[34] O
io_out[35] O
io_out[36] O
io_out[37] O
io_out[3] O
io_out[4] O
io_out[5] O
io_out[6] O
io_out[7] O
io_out[8] O
io_out[9] O
la_data_in[0] I
la_data_in[10] I
la_data_in[11] I
la_data_in[12] I
la_data_in[13] I
la_data_in[14] I
la_data_in[15] I
la_data_in[16] I
la_data_in[17] I
la_data_in[18] I
la_data_in[19] I
la_data_in[1] I
la_data_in[20] I
la_data_in[21] I
la_data_in[22] I
la_data_in[23] I
la_data_in[24] I
la_data_in[25] I
la_data_in[26] I
la_data_in[27] I
la_data_in[28] I
la_data_in[29] I
la_data_in[2] I
la_data_in[30] I
la_data_in[31] I
la_data_in[32] I
la_data_in[33] I
la_data_in[34] I
la_data_in[35] I
la_data_in[36] I
la_data_in[37] I
la_data_in[38] I
la_data_in[39] I
la_data_in[3] I
la_data_in[40] I
la_data_in[41] I
la_data_in[42] I
la_data_in[43] I
la_data_in[44] I
la_data_in[45] I
la_data_in[46] I
la_data_in[47] I
la_data_in[48] I
la_data_in[49] I
la_data_in[4] I
la_data_in[50] I
la_data_in[51] I
la_data_in[52] I
la_data_in[53] I
la_data_in[54] I
la_data_in[55] I
la_data_in[56] I
la_data_in[57] I
la_data_in[58] I
la_data_in[59] I
la_data_in[5] I
la_data_in[60] I
la_data_in[61] I
la_data_in[62] I
la_data_in[63] I
la_data_in[6] I
la_data_in[7] I
la_data_in[8] I
la_data_in[9] I
la_data_out[0] O
la_data_out[10] O
la_data_out[11] O
la_data_out[12] O
la_data_out[13] O
la_data_out[14] O
la_data_out[15] O
la_data_out[16] O
la_data_out[17] O
la_data_out[18] O
la_data_out[19] O
la_data_out[1] O
la_data_out[20] O
la_data_out[21] O
la_data_out[22] O
la_data_out[23] O
la_data_out[24] O
la_data_out[25] O
la_data_out[26] O
la_data_out[27] O
la_data_out[28] O
la_data_out[29] O
la_data_out[2] O
la_data_out[30] O
la_data_out[31] O
la_data_out[32] O
la_data_out[33] O
la_data_out[34] O
la_data_out[35] O
la_data_out[36] O
la_data_out[37] O
la_data_out[38] O
la_data_out[39] O
la_data_out[3] O
la_data_out[40] O
la_data_out[41] O
la_data_out[42] O
la_data_out[43] O
la_data_out[44] O
la_data_out[45] O
la_data_out[46] O
la_data_out[47] O
la_data_out[48] O
la_data_out[49] O
la_data_out[4] O
la_data_out[50] O
la_data_out[51] O
la_data_out[52] O
la_data_out[53] O
la_data_out[54] O
la_data_out[55] O
la_data_out[56] O
la_data_out[57] O
la_data_out[58] O
la_data_out[59] O
la_data_out[5] O
la_data_out[60] O
la_data_out[61] O
la_data_out[62] O
la_data_out[63] O
la_data_out[6] O
la_data_out[7] O
la_data_out[8] O
la_data_out[9] O
la_oenb[0] I
la_oenb[10] I
la_oenb[11] I
la_oenb[12] I
la_oenb[13] I
la_oenb[14] I
la_oenb[15] I
la_oenb[16] I
la_oenb[17] I
la_oenb[18] I
la_oenb[19] I
la_oenb[1] I
la_oenb[20] I
la_oenb[21] I
la_oenb[22] I
la_oenb[23] I
la_oenb[24] I
la_oenb[25] I
la_oenb[26] I
la_oenb[27] I
la_oenb[28] I
la_oenb[29] I
la_oenb[2] I
la_oenb[30] I
la_oenb[31] I
la_oenb[32] I
la_oenb[33] I
la_oenb[34] I
la_oenb[35] I
la_oenb[36] I
la_oenb[37] I
la_oenb[38] I
la_oenb[39] I
la_oenb[3] I
la_oenb[40] I
la_oenb[41] I
la_oenb[42] I
la_oenb[43] I
la_oenb[44] I
la_oenb[45] I
la_oenb[46] I
la_oenb[47] I
la_oenb[48] I
la_oenb[49] I
la_oenb[4] I
la_oenb[50] I
la_oenb[51] I
la_oenb[52] I
la_oenb[53] I
la_oenb[54] I
la_oenb[55] I
la_oenb[56] I
la_oenb[57] I
la_oenb[58] I
la_oenb[59] I
la_oenb[5] I
la_oenb[60] I
la_oenb[61] I
la_oenb[62] I
la_oenb[63] I
la_oenb[6] I
la_oenb[7] I
la_oenb[8] I
la_oenb[9] I
user_clock2 I
user_irq[0] O
user_irq[1] O
user_irq[2] O
wb_clk_i I
wb_rst_i I
wbs_ack_o O
wbs_adr_i[0] I
wbs_adr_i[10] I
wbs_adr_i[11] I
wbs_adr_i[12] I
wbs_adr_i[13] I
wbs_adr_i[14] I
wbs_adr_i[15] I
wbs_adr_i[16] I
wbs_adr_i[17] I
wbs_adr_i[18] I
wbs_adr_i[19] I
wbs_adr_i[1] I
wbs_adr_i[20] I
wbs_adr_i[21] I
wbs_adr_i[22] I
wbs_adr_i[23] I
wbs_adr_i[24] I
wbs_adr_i[25] I
wbs_adr_i[26] I
wbs_adr_i[27] I
wbs_adr_i[28] I
wbs_adr_i[29] I
wbs_adr_i[2] I
wbs_adr_i[30] I
wbs_adr_i[31] I
wbs_adr_i[3] I
wbs_adr_i[4] I
wbs_adr_i[5] I
wbs_adr_i[6] I
wbs_adr_i[7] I
wbs_adr_i[8] I
wbs_adr_i[9] I
wbs_cyc_i I
wbs_dat_i[0] I
wbs_dat_i[10] I
wbs_dat_i[11] I
wbs_dat_i[12] I
wbs_dat_i[13] I
wbs_dat_i[14] I
wbs_dat_i[15] I
wbs_dat_i[16] I
wbs_dat_i[17] I
wbs_dat_i[18] I
wbs_dat_i[19] I
wbs_dat_i[1] I
wbs_dat_i[20] I
wbs_dat_i[21] I
wbs_dat_i[22] I
wbs_dat_i[23] I
wbs_dat_i[24] I
wbs_dat_i[25] I
wbs_dat_i[26] I
wbs_dat_i[27] I
wbs_dat_i[28] I
wbs_dat_i[29] I
wbs_dat_i[2] I
wbs_dat_i[30] I
wbs_dat_i[31] I
wbs_dat_i[3] I
wbs_dat_i[4] I
wbs_dat_i[5] I
wbs_dat_i[6] I
wbs_dat_i[7] I
wbs_dat_i[8] I
wbs_dat_i[9] I
wbs_dat_o[0] O
wbs_dat_o[10] O
wbs_dat_o[11] O
wbs_dat_o[12] O
wbs_dat_o[13] O
wbs_dat_o[14] O
wbs_dat_o[15] O
wbs_dat_o[16] O
wbs_dat_o[17] O
wbs_dat_o[18] O
wbs_dat_o[19] O
wbs_dat_o[1] O
wbs_dat_o[20] O
wbs_dat_o[21] O
wbs_dat_o[22] O
wbs_dat_o[23] O
wbs_dat_o[24] O
wbs_dat_o[25] O
wbs_dat_o[26] O
wbs_dat_o[27] O
wbs_dat_o[28] O
wbs_dat_o[29] O
wbs_dat_o[2] O
wbs_dat_o[30] O
wbs_dat_o[31] O
wbs_dat_o[3] O
wbs_dat_o[4] O
wbs_dat_o[5] O
wbs_dat_o[6] O
wbs_dat_o[7] O
wbs_dat_o[8] O
wbs_dat_o[9] O
wbs_sel_i[0] I
wbs_sel_i[1] I
wbs_sel_i[2] I
wbs_sel_i[3] I
wbs_stb_i I
wbs_we_i I

*D_NET *14 0.57377
*CONN
*P io_in[21] I
*I *538:digital_io_in[21] I *D pinmux_top
*CAP
1 io_in[21] 0.00194567
2 *538:digital_io_in[21] 0.00108183
3 *14:13 0.00246618
4 *14:11 0.00138434
5 *14:9 0.0209517
6 *14:7 0.0228973
7 *14:9 *52:15 0.0788792
8 *14:13 *15:13 0.224144
9 *14:13 *52:11 0.220021
*RES
1 io_in[21] *14:7 17.24 
2 *14:7 *14:9 280.072 
3 *14:9 *14:11 4.5 
4 *14:11 *14:13 577.096 
5 *14:13 *538:digital_io_in[21] 11.728 
*END

*D_NET *15 0.339589
*CONN
*P io_in[22] I
*I *538:digital_io_in[22] I *D pinmux_top
*CAP
1 io_in[22] 0.00192502
2 *538:digital_io_in[22] 0.00099325
3 *15:13 0.0377616
4 *15:11 0.0367683
5 *15:9 0.0180362
6 *15:7 0.0199612
7 *14:13 *15:13 0.224144
*RES
1 io_in[22] *15:7 20.36 
2 *15:7 *15:9 156.936 
3 *15:9 *15:11 4.5 
4 *15:11 *15:13 595.4 
5 *15:13 *538:digital_io_in[22] 11.312 
*END

*D_NET *16 0.329198
*CONN
*P io_in[23] I
*I *538:digital_io_in[23] I *D pinmux_top
*CAP
1 io_in[23] 0.0014925
2 *538:digital_io_in[23] 0.00130974
3 *16:13 0.0407521
4 *16:11 0.0418936
5 *16:7 0.00394376
6 *16:11 *52:15 0.0136059
7 *16:13 *53:11 0.226201
*RES
1 io_in[23] *16:7 16.824 
2 *16:7 *16:11 41.628 
3 *16:11 *16:13 620.36 
4 *16:13 *538:digital_io_in[23] 14.224 
*END

*D_NET *17 0.233467
*CONN
*P io_in[24] I
*I *538:digital_io_in[24] I *D pinmux_top
*CAP
1 io_in[24] 0.00125858
2 *538:digital_io_in[24] 0.00193101
3 *17:15 0.00793096
4 *17:11 0.00599995
5 *17:9 0.0560219
6 *17:7 0.0572804
7 *17:9 io_out[29] 0
8 *17:9 *59:15 0.103044
*RES
1 io_in[24] *17:7 14.744 
2 *17:7 *17:9 624.52 
3 *17:9 *17:11 4.5 
4 *17:11 *17:15 48.776 
5 *17:15 *538:digital_io_in[24] 15.444 
*END

*D_NET *18 0.145537
*CONN
*P io_in[25] I
*I *538:digital_io_in[25] I *D pinmux_top
*CAP
1 io_in[25] 0.00210885
2 *538:digital_io_in[25] 0.0019095
3 *18:15 0.00705916
4 *18:9 0.06875
5 *18:7 0.0657092
*RES
1 io_in[25] *18:7 20.984 
2 *18:7 *18:9 567.112 
3 *18:9 *18:15 47.036 
4 *18:15 *538:digital_io_in[25] 15.444 
*END

*D_NET *19 0.132365
*CONN
*P io_in[26] I
*I *538:digital_io_in[26] I *D pinmux_top
*CAP
1 io_in[26] 0.0035299
2 *538:digital_io_in[26] 0.00557376
3 *19:9 0.0626526
4 *19:7 0.0606088
*RES
1 io_in[26] *19:7 33.464 
2 *19:7 *19:9 509.704 
3 *19:9 *538:digital_io_in[26] 50 
*END

*D_NET *20 0.121072
*CONN
*P io_in[27] I
*I *538:digital_io_in[27] I *D pinmux_top
*CAP
1 io_in[27] 0.00349127
2 *538:digital_io_in[27] 0.00188797
3 *20:15 0.00625195
4 *20:9 0.0551566
5 *20:7 0.0542839
*RES
1 io_in[27] *20:7 27.224 
2 *20:7 *20:9 452.296 
3 *20:9 *20:15 40.796 
4 *20:15 *538:digital_io_in[27] 15.444 
*END

*D_NET *21 0.10812
*CONN
*P io_in[28] I
*I *538:digital_io_in[28] I *D pinmux_top
*CAP
1 io_in[28] 0.0039471
2 *538:digital_io_in[28] 0.00188796
3 *21:15 0.00584832
4 *21:9 0.0482252
5 *21:7 0.0482119
*RES
1 io_in[28] *21:7 30.344 
2 *21:7 *21:9 394.888 
3 *21:9 *21:15 37.676 
4 *21:15 *538:digital_io_in[28] 15.444 
*END

*D_NET *22 0.100971
*CONN
*P io_in[29] I
*I *538:digital_io_in[29] I *D pinmux_top
*CAP
1 io_in[29] 0.00257481
2 *538:digital_io_in[29] 0.00514863
3 *22:9 0.0430935
4 *22:7 0.0405197
5 *22:7 *94:15 0.00963398
*RES
1 io_in[29] *22:7 36.584 
2 *22:7 *22:9 337.48 
3 *22:9 *538:digital_io_in[29] 46.88 
*END

*D_NET *24 0.146414
*CONN
*P io_in[30] I
*I *538:digital_io_in[30] I *D pinmux_top
*CAP
1 io_in[30] 0.00438126
2 *538:digital_io_in[30] 0.00472244
3 *24:9 0.0241018
4 *24:7 0.0237606
5 *24:9 *96:15 0.0894476
*RES
1 io_in[30] *24:7 39.912 
2 *24:7 *24:9 280.072 
3 *24:9 *538:digital_io_in[30] 43.552 
*END

*D_NET *25 0.112763
*CONN
*P io_in[31] I
*I *538:digital_io_in[31] I *D pinmux_top
*CAP
1 io_in[31] 0.00525306
2 *538:digital_io_in[31] 0.00385066
3 *25:9 0.0207022
4 *25:7 0.0221046
5 *25:9 *58:15 0.0608521
*RES
1 io_in[31] *25:7 46.152 
2 *25:7 *25:9 222.664 
3 *25:9 *538:digital_io_in[31] 37.312 
*END

*D_NET *26 0.0552287
*CONN
*P io_in[32] I
*I *538:digital_io_in[32] I *D pinmux_top
*CAP
1 io_in[32] 0.0025555
2 *538:digital_io_in[32] 0.00182348
3 *26:15 0.00641904
4 *26:9 0.0232354
5 *26:7 0.0211953
*RES
1 io_in[32] *26:7 24.104 
2 *26:7 *26:9 165.256 
3 *26:9 *26:15 43.916 
4 *26:15 *538:digital_io_in[32] 15.444 
*END

*D_NET *27 0.0424245
*CONN
*P io_in[33] I
*I *538:digital_io_in[33] I *D pinmux_top
*CAP
1 io_in[33] 0.00291608
2 *538:digital_io_in[33] 0.00261957
3 *27:13 0.00802926
4 *27:11 0.00540968
5 *27:9 0.0102669
6 *27:7 0.013183
*RES
1 io_in[33] *27:7 27.224 
2 *27:7 *27:9 91.208 
3 *27:9 *27:11 4.5 
4 *27:11 *27:13 46.904 
5 *27:13 *538:digital_io_in[33] 30.06 
*END

*D_NET *28 0.0409279
*CONN
*P io_in[34] I
*I *538:digital_io_in[34] I *D pinmux_top
*CAP
1 io_in[34] 0.000919485
2 *538:digital_io_in[34] 0.00185738
3 *28:13 0.0079045
4 *28:11 0.00604712
5 *28:9 0.00330301
6 *28:7 0.00422249
7 *28:9 io_out[34] 0.000869272
8 *28:9 *65:15 0.00127211
9 *28:9 *103:15 0.0145325
*RES
1 io_in[34] *28:7 11.624 
2 *28:7 *28:9 50.44 
3 *28:9 *28:11 4.5 
4 *28:11 *28:13 51.584 
5 *28:13 *538:digital_io_in[34] 15.756 
*END

*D_NET *29 0.0191871
*CONN
*P io_in[35] I
*I *538:digital_io_in[35] I *D pinmux_top
*CAP
1 io_in[35] 0.00170799
2 *538:digital_io_in[35] 0.00185739
3 *29:13 0.007883
4 *29:11 0.00773361
5 *29:11 *105:7 5.12047e-06
*RES
1 io_in[35] *29:11 22.884 
2 *29:11 *29:13 51.584 
3 *29:13 *538:digital_io_in[35] 15.756 
*END

*D_NET *30 0.0327249
*CONN
*P io_in[36] I
*I *538:digital_io_in[36] I *D pinmux_top
*CAP
1 io_in[36] 0.00828274
2 *538:digital_io_in[36] 0.000745177
3 *30:9 0.00803923
4 *30:7 0.00729405
5 *30:5 0.00828274
6 *538:digital_io_in[36] *67:15 8.0917e-05
*RES
1 io_in[36] *30:5 69.524 
2 *30:5 *30:7 4.5 
3 *30:7 *30:9 63.336 
4 *30:9 *538:digital_io_in[36] 10.064 
*END

*D_NET *31 0.0452376
*CONN
*P io_in[37] I
*I *538:digital_io_in[37] I *D pinmux_top
*CAP
1 io_in[37] 0.00244796
2 *538:digital_io_in[37] 0.00184497
3 *31:15 0.00641904
4 *31:9 0.0183259
5 *31:7 0.0161998
*RES
1 io_in[37] *31:7 24.104 
2 *31:7 *31:9 121.784 
3 *31:9 *31:15 43.916 
4 *31:15 *538:digital_io_in[37] 15.444 
*END

*D_NET *34 0.174504
*CONN
*P io_in[5] I
*I *540:buttons[0] I *D wb_buttons_leds
*CAP
1 io_in[5] 0.00102569
2 *540:buttons[0] 0
3 *34:17 0.00643821
4 *34:15 0.00680905
5 *34:9 0.0157837
6 *34:7 0.0164386
7 *34:9 *35:9 0.107851
8 *34:15 *35:17 0.00164585
9 *34:17 *35:17 0.0144608
10 *34:17 *72:12 0.00272998
11 *34:17 *72:14 2.54561e-06
12 *34:17 *73:12 0.00131783
*RES
1 io_in[5] *34:7 13.08 
2 *34:7 *34:9 269.256 
3 *34:9 *34:15 13.472 
4 *34:15 *34:17 82.056 
5 *34:17 *540:buttons[0] 4.5 
*END

*D_NET *35 0.307689
*CONN
*P io_in[6] I
*I *540:buttons[1] I *D wb_buttons_leds
*CAP
1 io_in[6] 0.000956954
2 *540:buttons[1] 0
3 *35:17 0.00241795
4 *35:9 0.00756475
5 *35:7 0.00610375
6 *35:9 *73:14 0.137357
7 *35:9 *113:5 0.0293307
8 *34:9 *35:9 0.107851
9 *34:15 *35:17 0.00164585
10 *34:17 *35:17 0.0144608
*RES
1 io_in[6] *35:7 12.872 
2 *35:7 *35:9 343.096 
3 *35:9 *35:17 49.56 
4 *35:17 *540:buttons[1] 4.5 
*END

*D_NET *40 0.226015
*CONN
*P io_oeb[10] O
*I *540:xtal_clk_enb[1] O *D wb_buttons_leds
*CAP
1 io_oeb[10] 0.0010618
2 *540:xtal_clk_enb[1] 0.00216946
3 *40:21 0.0173814
4 *40:19 0.0195702
5 *40:13 0.0582002
6 *40:11 0.0571191
7 *40:11 *78:11 0.000521498
8 *40:11 *114:11 0.00641653
9 *40:13 *74:5 0.0117495
10 *40:13 *316:66 2.04597e-06
11 *40:13 *347:35 0.0238155
12 *40:19 *316:64 0.00050399
13 *40:21 io_oeb[9] 0.000261341
14 *40:21 *78:21 0.0269313
15 *40:21 *113:5 2.70296e-05
16 *40:21 *114:23 0.000283629
*RES
1 *540:xtal_clk_enb[1] *40:11 34.948 
2 *40:11 *40:13 508.456 
3 *40:13 *40:19 34.064 
4 *40:19 *40:21 173.16 
5 *40:21 io_oeb[10] 14.12 
*END

*D_NET *43 0.0311773
*CONN
*P io_oeb[13] O
*I *536:io_oeb[0] O *D temp_sensor
*CAP
1 io_oeb[13] 0.00473074
2 *536:io_oeb[0] 0.0108579
3 *43:5 0.0155887
*RES
1 *536:io_oeb[0] *43:5 91.156 
2 *43:5 io_oeb[13] 44.904 
*END

*D_NET *44 0.0493043
*CONN
*P io_oeb[14] O
*I *536:io_oeb[1] O *D temp_sensor
*CAP
1 io_oeb[14] 0.00504909
2 *536:io_oeb[1] 0.019603
3 *44:5 0.0246521
*RES
1 *536:io_oeb[1] *44:5 164.788 
2 *44:5 io_oeb[14] 48.232 
*END

*D_NET *45 0.0700143
*CONN
*P io_oeb[15] O
*I *536:io_oeb[2] O *D temp_sensor
*CAP
1 io_oeb[15] 0.00148865
2 *536:io_oeb[2] 0.0197243
3 *45:9 0.00505919
4 *45:7 0.00357054
5 *45:5 0.0197243
6 *45:9 *46:9 0.0204474
*RES
1 *536:io_oeb[2] *45:5 165.828 
2 *45:5 *45:7 4.5 
3 *45:7 *45:9 55.016 
4 *45:9 io_oeb[15] 16.616 
*END

*D_NET *46 0.146142
*CONN
*P io_oeb[16] O
*I *536:io_oeb[3] O *D temp_sensor
*CAP
1 io_oeb[16] 0.00151289
2 *536:io_oeb[3] 0.0197
3 *46:9 0.00908842
4 *46:7 0.00757553
5 *46:5 0.0197
6 *46:9 *47:9 0.068118
7 *45:9 *46:9 0.0204474
*RES
1 *536:io_oeb[3] *46:5 165.62 
2 *46:5 *46:7 4.5 
3 *46:7 *46:9 174.616 
4 *46:9 io_oeb[16] 16.824 
*END

*D_NET *47 0.24117
*CONN
*P io_oeb[17] O
*I *536:io_oeb[4] O *D temp_sensor
*CAP
1 io_oeb[17] 0.00153713
2 *536:io_oeb[4] 0.0196758
3 *47:9 0.00953846
4 *47:7 0.00800133
5 *47:5 0.0196758
6 *47:9 *49:9 0.114624
7 *46:9 *47:9 0.068118
*RES
1 *536:io_oeb[4] *47:5 165.412 
2 *47:5 *47:7 4.5 
3 *47:7 *47:9 294.216 
4 *47:9 io_oeb[17] 17.032 
*END

*D_NET *48 0.265944
*CONN
*P io_oeb[18] O
*I *536:io_oeb[5] O *D temp_sensor
*CAP
1 io_oeb[18] 0.00190078
2 *536:io_oeb[5] 0.0015918
3 *48:17 0.0253112
4 *48:15 0.0234104
5 *48:13 0.0108866
6 *48:11 0.0124784
7 *48:11 *85:9 0.00341695
8 *48:13 *51:13 0.0253985
9 *48:17 *51:17 0.16155
*RES
1 *536:io_oeb[5] *48:11 24.132 
2 *48:11 *48:13 156.104 
3 *48:13 *48:15 4.5 
4 *48:15 *48:17 405.08 
5 *48:17 io_oeb[18] 20.152 
*END

*D_NET *49 0.246286
*CONN
*P io_oeb[19] O
*I *536:io_oeb[6] O *D temp_sensor
*CAP
1 io_oeb[19] 0.00263491
2 *536:io_oeb[6] 0.0196719
3 *49:9 0.0461593
4 *49:7 0.0435244
5 *49:5 0.0196719
6 io_oeb[19] *89:17 0
7 *47:9 *49:9 0.114624
*RES
1 *536:io_oeb[6] *49:5 165.204 
2 *49:5 *49:7 4.5 
3 *49:7 *49:9 525.096 
4 *49:9 io_oeb[19] 34.768 
*END

*D_NET *51 0.317238
*CONN
*P io_oeb[20] O
*I *536:io_oeb[7] O *D temp_sensor
*CAP
1 io_oeb[20] 0.00186388
2 *536:io_oeb[7] 0.00103244
3 *51:17 0.0530597
4 *51:15 0.0511959
5 *51:13 0.0109983
6 *51:11 0.0120308
7 *51:11 *85:9 0.000108852
8 *48:13 *51:13 0.0253985
9 *48:17 *51:17 0.16155
*RES
1 *536:io_oeb[7] *51:11 16.02 
2 *51:11 *51:13 156.936 
3 *51:13 *51:15 4.5 
4 *51:15 *51:17 651.352 
5 *51:17 io_oeb[20] 20.36 
*END

*D_NET *52 0.404247
*CONN
*P io_oeb[21] O
*I *538:digital_io_oen[21] O *D pinmux_top
*CAP
1 io_oeb[21] 0.00149635
2 *538:digital_io_oen[21] 0.00110262
3 *52:15 0.0111846
4 *52:13 0.00968821
5 *52:11 0.0335837
6 *52:9 0.0346863
7 *14:9 *52:15 0.0788792
8 *14:13 *52:11 0.220021
9 *16:11 *52:15 0.0136059
*RES
1 *538:digital_io_oen[21] *52:9 11.52 
2 *52:9 *52:11 563.576 
3 *52:11 *52:13 4.5 
4 *52:13 *52:15 198.328 
5 *52:15 io_oeb[21] 17.032 
*END

*D_NET *53 0.320878
*CONN
*P io_oeb[22] O
*I *538:digital_io_oen[22] O *D pinmux_top
*CAP
1 io_oeb[22] 0.0023604
2 *538:digital_io_oen[22] 0.00135242
3 *53:15 0.0115088
4 *53:13 0.00914838
5 *53:11 0.0344777
6 *53:9 0.0358301
7 *16:13 *53:11 0.226201
*RES
1 *538:digital_io_oen[22] *53:9 14.016 
2 *53:9 *53:11 579.176 
3 *53:11 *53:13 4.5 
4 *53:13 *53:15 78.52 
5 *53:15 io_oeb[22] 23.48 
*END

*D_NET *54 0.16358
*CONN
*P io_oeb[23] O
*I *538:digital_io_oen[23] O *D pinmux_top
*CAP
1 io_oeb[23] 0.0735003
2 *538:digital_io_oen[23] 0.0024316
3 *54:13 0.0793585
4 *54:9 0.00828977
*RES
1 *538:digital_io_oen[23] *54:9 15.756 
2 *54:9 *54:13 43.396 
3 *54:13 io_oeb[23] 619.06 
*END

*D_NET *55 0.149105
*CONN
*P io_oeb[24] O
*I *538:digital_io_oen[24] O *D pinmux_top
*CAP
1 io_oeb[24] 0.00614026
2 *538:digital_io_oen[24] 0.00285592
3 *55:17 0.00614026
4 *55:15 0.0655563
5 *55:13 0.0684122
*RES
1 *538:digital_io_oen[24] *55:13 28.16 
2 *55:13 *55:15 586.248 
3 *55:15 *55:17 4.5 
4 *55:17 io_oeb[24] 50.804 
*END

*D_NET *56 0.136472
*CONN
*P io_oeb[25] O
*I *538:digital_io_oen[25] O *D pinmux_top
*CAP
1 io_oeb[25] 0.00654384
2 *538:digital_io_oen[25] 0.00247379
3 *56:17 0.00654384
4 *56:15 0.0592183
5 *56:13 0.0616921
*RES
1 *538:digital_io_oen[25] *56:13 25.04 
2 *56:13 *56:15 528.84 
3 *56:15 *56:17 4.5 
4 *56:17 io_oeb[25] 53.924 
*END

*D_NET *57 0.12472
*CONN
*P io_oeb[26] O
*I *538:digital_io_oen[26] O *D pinmux_top
*CAP
1 io_oeb[26] 0.00694745
2 *538:digital_io_oen[26] 0.00260665
3 *57:17 0.00694745
4 *57:15 0.052806
5 *57:13 0.0554127
*RES
1 *538:digital_io_oen[26] *57:13 21.92 
2 *57:13 *57:15 471.432 
3 *57:15 *57:17 4.5 
4 *57:17 io_oeb[26] 57.044 
*END

*D_NET *58 0.1552
*CONN
*P io_oeb[27] O
*I *538:digital_io_oen[27] O *D pinmux_top
*CAP
1 io_oeb[27] 0.00512289
2 *538:digital_io_oen[27] 0.00395927
3 *58:15 0.0432146
4 *58:13 0.042051
5 *25:9 *58:15 0.0608521
*RES
1 *538:digital_io_oen[27] *58:13 37.52 
2 *58:13 *58:15 414.024 
3 *58:15 io_oeb[27] 45.944 
*END

*D_NET *59 0.18565
*CONN
*P io_oeb[28] O
*I *538:digital_io_oen[28] O *D pinmux_top
*CAP
1 io_oeb[28] 0.00138875
2 *538:digital_io_oen[28] 0.00192188
3 *59:15 0.0251707
4 *59:13 0.0237819
5 *59:11 0.00579289
6 *59:9 0.00771477
7 *59:15 *64:15 0.0168349
8 *17:9 *59:15 0.103044
*RES
1 *538:digital_io_oen[28] *59:9 15.756 
2 *59:9 *59:11 48.256 
3 *59:11 *59:13 4.5 
4 *59:13 *59:15 356.616 
5 *59:15 io_oeb[28] 14.952 
*END

*D_NET *60 0.0949526
*CONN
*P io_oeb[29] O
*I *538:digital_io_oen[29] O *D pinmux_top
*CAP
1 io_oeb[29] 0.00743706
2 *538:digital_io_oen[29] 0.00171979
3 *60:13 0.00743706
4 *60:11 0.0337941
5 *60:9 0.0355139
6 *60:11 io_out[23] 0.00905065
*RES
1 *538:digital_io_oen[29] *60:9 18.592 
2 *60:9 *60:11 298.792 
3 *60:11 *60:13 4.5 
4 *60:13 io_oeb[29] 60.164 
*END

*D_NET *62 0.146676