*SPEF "ieee 1481-1999"
*DESIGN "wb_buttons_leds"
*DATE "11:11:11 Fri 11 11, 1111"
*VENDOR "OpenRCX"
*PROGRAM "Parallel Extraction"
*VERSION "1.0"
*DESIGN_FLOW "NAME_SCOPE LOCAL" "PIN_CAP NONE"
*DIVIDER /
*DELIMITER :
*BUS_DELIMITER []
*T_UNIT 1 NS
*C_UNIT 1 PF
*R_UNIT 1 OHM
*L_UNIT 1 HENRY

*NAME_MAP
*1 buttons[0]
*2 buttons[1]
*3 net85
*4 net49
*5 clk
*6 clk2
*7 i_wb_addr[0]
*8 i_wb_addr[10]
*9 i_wb_addr[11]
*10 i_wb_addr[12]
*11 i_wb_addr[13]
*12 i_wb_addr[14]
*13 i_wb_addr[15]
*14 i_wb_addr[16]
*15 i_wb_addr[17]
*16 i_wb_addr[18]
*17 i_wb_addr[19]
*18 i_wb_addr[1]
*19 i_wb_addr[20]
*20 i_wb_addr[21]
*21 i_wb_addr[22]
*22 i_wb_addr[23]
*23 i_wb_addr[24]
*24 i_wb_addr[25]
*25 i_wb_addr[26]
*26 i_wb_addr[27]
*27 i_wb_addr[28]
*28 i_wb_addr[29]
*29 i_wb_addr[2]
*30 i_wb_addr[30]
*31 i_wb_addr[31]
*32 i_wb_addr[3]
*33 i_wb_addr[4]
*34 i_wb_addr[5]
*35 i_wb_addr[6]
*36 i_wb_addr[7]
*37 i_wb_addr[8]
*38 i_wb_addr[9]
*39 i_wb_cyc
*40 i_wb_data[0]
*41 i_wb_data[1]
*42 i_wb_stb
*43 i_wb_we
*44 net50
*45 net51
*46 leds[0]
*47 leds[1]
*48 o_wb_ack
*49 o_wb_data[0]
*50 net60
*51 net61
*52 net62
*53 net63
*54 net64
*55 net65
*56 net66
*57 net67
*58 net68
*59 net69
*60 o_wb_data[1]
*61 net70
*62 net71
*63 net72
*64 net73
*65 net74
*66 net75
*67 net76
*68 net77
*69 net78
*70 net79
*71 net52
*72 net80
*73 net81
*74 net53
*75 net54
*76 net55
*77 net56
*78 net57
*79 net58
*80 net59
*81 net82
*82 reset
*85 net83
*86 net84
*87 xtal_clk_enb[0]
*88 xtal_clk_enb[1]
*89 _000_
*90 _001_
*91 _002_
*92 _003_
*93 _004_
*94 _005_
*95 _006_
*96 _007_
*97 _008_
*98 _009_
*99 _010_
*100 _011_
*101 _012_
*102 _013_
*103 _014_
*104 _015_
*105 _016_
*106 _017_
*107 _018_
*108 _019_
*109 _020_
*110 _021_
*111 _022_
*112 _023_
*113 _024_
*114 _025_
*115 _026_
*116 _027_
*117 _028_
*118 _029_
*119 _030_
*120 _031_
*121 _032_
*122 _033_
*123 _034_
*124 _035_
*125 _036_
*126 _037_
*127 _038_
*128 _039_
*129 _040_
*130 _041_
*131 _042_
*132 _043_
*133 _044_
*134 _045_
*135 clknet_0_clk
*136 clknet_1_0__leaf_clk
*137 clknet_1_1__leaf_clk
*138 net1
*139 net10
*140 net11
*141 net12
*142 net13
*143 net14
*144 net15
*145 net16
*146 net17
*147 net18
*148 net19
*149 net2
*150 net20
*151 net21
*152 net22
*153 net23
*154 net24
*155 net25
*156 net26
*157 net27
*158 net28
*159 net29
*160 net3
*161 net30
*162 net31
*163 net32
*164 net33
*165 net34
*166 net35
*167 net36
*168 net37
*169 net38
*170 net39
*171 net4
*172 net40
*173 net41
*174 net42
*175 net43
*176 net44
*177 net45
*178 net46
*179 net47
*180 net48
*181 net5
*182 net6
*183 net7
*184 net8
*185 net9
*186 ANTENNA__047__I
*187 ANTENNA__050__I
*188 ANTENNA__066__A1
*189 ANTENNA__068__A1
*190 ANTENNA__070__A1
*191 ANTENNA__070__A2
*192 ANTENNA__072__A1
*193 ANTENNA__072__A2
*194 ANTENNA__073__A1
*195 ANTENNA__076__C
*196 ANTENNA__078__A1
*197 ANTENNA__079__A1
*198 ANTENNA__079__B
*199 ANTENNA__081__C
*200 ANTENNA__082__A1
*201 ANTENNA__083__A1
*202 ANTENNA__083__B
*203 ANTENNA__085__A1
*204 ANTENNA__085__A2
*205 ANTENNA__085__A3
*206 ANTENNA__088__A1
*207 ANTENNA__088__B
*208 ANTENNA__090__A1
*209 ANTENNA__090__B
*210 ANTENNA__097__CLK
*211 ANTENNA__097__D
*212 ANTENNA__098__D
*213 ANTENNA_clkbuf_0_clk_I
*214 ANTENNA_input10_I
*215 ANTENNA_input11_I
*216 ANTENNA_input12_I
*217 ANTENNA_input13_I
*218 ANTENNA_input14_I
*219 ANTENNA_input15_I
*220 ANTENNA_input16_I
*221 ANTENNA_input17_I
*222 ANTENNA_input18_I
*223 ANTENNA_input19_I
*224 ANTENNA_input1_I
*225 ANTENNA_input20_I
*226 ANTENNA_input21_I
*227 ANTENNA_input22_I
*228 ANTENNA_input23_I
*229 ANTENNA_input24_I
*230 ANTENNA_input25_I
*231 ANTENNA_input26_I
*232 ANTENNA_input27_I
*233 ANTENNA_input28_I
*234 ANTENNA_input29_I
*235 ANTENNA_input2_I
*236 ANTENNA_input30_I
*237 ANTENNA_input31_I
*238 ANTENNA_input32_I
*239 ANTENNA_input33_I
*240 ANTENNA_input34_I
*241 ANTENNA_input35_I
*242 ANTENNA_input36_I
*243 ANTENNA_input37_I
*244 ANTENNA_input38_I
*245 ANTENNA_input39_I
*246 ANTENNA_input3_I
*247 ANTENNA_input40_I
*248 ANTENNA_input41_I
*249 ANTENNA_input4_I
*250 ANTENNA_input5_I
*251 ANTENNA_input6_I
*252 ANTENNA_input7_I
*253 ANTENNA_input8_I
*254 ANTENNA_input9_I
*255 ANTENNA_output42_I
*256 ANTENNA_output43_I
*257 ANTENNA_output45_I
*258 ANTENNA_output46_I
*259 ANTENNA_output47_I
*260 ANTENNA_output48_I
*261 FILLER_0_0_133
*262 FILLER_0_0_135
*263 FILLER_0_0_16
*264 FILLER_0_0_18
*265 FILLER_0_0_2
*266 FILLER_0_0_200
*267 FILLER_0_0_236
*268 FILLER_0_0_25
*269 FILLER_0_0_301
*270 FILLER_0_0_305
*271 FILLER_0_0_326
*272 FILLER_0_0_33
*273 FILLER_0_0_330
*274 FILLER_0_0_42
*275 FILLER_0_0_49
*276 FILLER_0_0_70
*277 FILLER_0_10_101
*278 FILLER_0_10_107
*279 FILLER_0_10_171
*280 FILLER_0_10_177
*281 FILLER_0_10_22
*282 FILLER_0_10_241
*283 FILLER_0_10_247
*284 FILLER_0_10_30
*285 FILLER_0_10_311
*286 FILLER_0_10_317
*287 FILLER_0_10_325
*288 FILLER_0_10_329
*289 FILLER_0_10_34
*290 FILLER_0_10_37
*291 FILLER_0_10_6
*292 FILLER_0_11_136
*293 FILLER_0_11_142
*294 FILLER_0_11_2
*295 FILLER_0_11_206
*296 FILLER_0_11_212
*297 FILLER_0_11_276
*298 FILLER_0_11_282
*299 FILLER_0_11_314
*300 FILLER_0_11_330
*301 FILLER_0_11_66
*302 FILLER_0_11_72
*303 FILLER_0_12_101
*304 FILLER_0_12_107
*305 FILLER_0_12_139
*306 FILLER_0_12_155
*307 FILLER_0_12_167
*308 FILLER_0_12_171
*309 FILLER_0_12_177
*310 FILLER_0_12_22
*311 FILLER_0_12_241
*312 FILLER_0_12_247
*313 FILLER_0_12_30
*314 FILLER_0_12_311
*315 FILLER_0_12_317
*316 FILLER_0_12_325
*317 FILLER_0_12_329
*318 FILLER_0_12_34
*319 FILLER_0_12_37
*320 FILLER_0_12_6
*321 FILLER_0_13_136
*322 FILLER_0_13_142
*323 FILLER_0_13_206
*324 FILLER_0_13_212
*325 FILLER_0_13_276
*326 FILLER_0_13_282
*327 FILLER_0_13_314
*328 FILLER_0_13_330
*329 FILLER_0_13_6
*330 FILLER_0_13_72
*331 FILLER_0_14_101
*332 FILLER_0_14_107
*333 FILLER_0_14_171
*334 FILLER_0_14_177
*335 FILLER_0_14_2
*336 FILLER_0_14_241
*337 FILLER_0_14_247
*338 FILLER_0_14_311
*339 FILLER_0_14_317
*340 FILLER_0_14_325
*341 FILLER_0_14_329
*342 FILLER_0_14_34
*343 FILLER_0_14_37
*344 FILLER_0_15_136
*345 FILLER_0_15_142
*346 FILLER_0_15_206
*347 FILLER_0_15_212
*348 FILLER_0_15_276
*349 FILLER_0_15_282
*350 FILLER_0_15_314
*351 FILLER_0_15_330
*352 FILLER_0_15_6
*353 FILLER_0_15_72
*354 FILLER_0_16_101
*355 FILLER_0_16_107
*356 FILLER_0_16_171
*357 FILLER_0_16_177
*358 FILLER_0_16_2
*359 FILLER_0_16_241
*360 FILLER_0_16_247
*361 FILLER_0_16_311
*362 FILLER_0_16_317
*363 FILLER_0_16_325
*364 FILLER_0_16_329
*365 FILLER_0_16_34
*366 FILLER_0_16_37
*367 FILLER_0_17_136
*368 FILLER_0_17_142
*369 FILLER_0_17_206
*370 FILLER_0_17_212
*371 FILLER_0_17_276
*372 FILLER_0_17_282
*373 FILLER_0_17_314
*374 FILLER_0_17_330
*375 FILLER_0_17_6
*376 FILLER_0_17_72
*377 FILLER_0_18_101
*378 FILLER_0_18_107
*379 FILLER_0_18_171
*380 FILLER_0_18_177
*381 FILLER_0_18_22
*382 FILLER_0_18_241
*383 FILLER_0_18_247
*384 FILLER_0_18_30
*385 FILLER_0_18_311
*386 FILLER_0_18_317
*387 FILLER_0_18_325
*388 FILLER_0_18_329
*389 FILLER_0_18_34
*390 FILLER_0_18_37
*391 FILLER_0_18_6
*392 FILLER_0_19_136
*393 FILLER_0_19_142
*394 FILLER_0_19_2
*395 FILLER_0_19_206
*396 FILLER_0_19_212
*397 FILLER_0_19_276
*398 FILLER_0_19_282
*399 FILLER_0_19_314
*400 FILLER_0_19_330
*401 FILLER_0_19_66
*402 FILLER_0_19_72
*403 FILLER_0_1_133
*404 FILLER_0_1_148
*405 FILLER_0_1_154
*406 FILLER_0_1_158
*407 FILLER_0_1_162
*408 FILLER_0_1_17
*409 FILLER_0_1_209
*410 FILLER_0_1_21
*411 FILLER_0_1_27
*412 FILLER_0_1_288
*413 FILLER_0_1_305
*414 FILLER_0_1_309
*415 FILLER_0_1_31
*416 FILLER_0_1_313
*417 FILLER_0_1_317
*418 FILLER_0_1_329
*419 FILLER_0_1_33
*420 FILLER_0_1_36
*421 FILLER_0_1_40
*422 FILLER_0_1_43
*423 FILLER_0_1_47
*424 FILLER_0_1_51
*425 FILLER_0_1_55
*426 FILLER_0_1_6
*427 FILLER_0_1_8
*428 FILLER_0_1_80
*429 FILLER_0_20_101
*430 FILLER_0_20_107
*431 FILLER_0_20_171
*432 FILLER_0_20_177
*433 FILLER_0_20_22
*434 FILLER_0_20_241
*435 FILLER_0_20_247
*436 FILLER_0_20_30
*437 FILLER_0_20_311
*438 FILLER_0_20_317
*439 FILLER_0_20_325
*440 FILLER_0_20_34
*441 FILLER_0_20_37
*442 FILLER_0_20_6
*443 FILLER_0_21_136
*444 FILLER_0_21_142
*445 FILLER_0_21_2
*446 FILLER_0_21_206
*447 FILLER_0_21_212
*448 FILLER_0_21_276
*449 FILLER_0_21_282
*450 FILLER_0_21_314
*451 FILLER_0_21_330
*452 FILLER_0_21_66
*453 FILLER_0_21_72
*454 FILLER_0_22_101
*455 FILLER_0_22_107
*456 FILLER_0_22_171
*457 FILLER_0_22_177
*458 FILLER_0_22_22
*459 FILLER_0_22_241
*460 FILLER_0_22_247
*461 FILLER_0_22_30
*462 FILLER_0_22_311
*463 FILLER_0_22_317
*464 FILLER_0_22_325
*465 FILLER_0_22_329
*466 FILLER_0_22_34
*467 FILLER_0_22_37
*468 FILLER_0_22_6
*469 FILLER_0_23_136
*470 FILLER_0_23_142
*471 FILLER_0_23_2
*472 FILLER_0_23_206
*473 FILLER_0_23_212
*474 FILLER_0_23_276
*475 FILLER_0_23_282
*476 FILLER_0_23_314
*477 FILLER_0_23_330
*478 FILLER_0_23_66
*479 FILLER_0_23_72
*480 FILLER_0_24_101
*481 FILLER_0_24_107
*482 FILLER_0_24_171
*483 FILLER_0_24_177
*484 FILLER_0_24_22
*485 FILLER_0_24_241
*486 FILLER_0_24_247
*487 FILLER_0_24_30
*488 FILLER_0_24_311
*489 FILLER_0_24_317
*490 FILLER_0_24_325
*491 FILLER_0_24_329
*492 FILLER_0_24_34
*493 FILLER_0_24_37
*494 FILLER_0_24_6
*495 FILLER_0_25_136
*496 FILLER_0_25_142
*497 FILLER_0_25_206
*498 FILLER_0_25_212
*499 FILLER_0_25_276
*500 FILLER_0_25_282
*501 FILLER_0_25_314
*502 FILLER_0_25_330
*503 FILLER_0_25_6
*504 FILLER_0_25_72
*505 FILLER_0_26_101
*506 FILLER_0_26_107
*507 FILLER_0_26_171
*508 FILLER_0_26_177
*509 FILLER_0_26_2
*510 FILLER_0_26_241
*511 FILLER_0_26_247
*512 FILLER_0_26_311
*513 FILLER_0_26_317
*514 FILLER_0_26_325
*515 FILLER_0_26_329
*516 FILLER_0_26_34
*517 FILLER_0_26_37
*518 FILLER_0_27_136
*519 FILLER_0_27_142
*520 FILLER_0_27_206
*521 FILLER_0_27_212
*522 FILLER_0_27_276
*523 FILLER_0_27_282
*524 FILLER_0_27_314
*525 FILLER_0_27_330
*526 FILLER_0_27_6
*527 FILLER_0_27_72
*528 FILLER_0_28_101
*529 FILLER_0_28_107
*530 FILLER_0_28_171
*531 FILLER_0_28_177
*532 FILLER_0_28_2
*533 FILLER_0_28_241
*534 FILLER_0_28_247
*535 FILLER_0_28_311
*536 FILLER_0_28_317
*537 FILLER_0_28_325
*538 FILLER_0_28_329
*539 FILLER_0_28_34
*540 FILLER_0_28_37
*541 FILLER_0_29_136
*542 FILLER_0_29_142
*543 FILLER_0_29_206
*544 FILLER_0_29_212
*545 FILLER_0_29_276
*546 FILLER_0_29_282
*547 FILLER_0_29_314
*548 FILLER_0_29_330
*549 FILLER_0_29_6
*550 FILLER_0_29_72
*551 FILLER_0_2_104
*552 FILLER_0_2_107
*553 FILLER_0_2_109
*554 FILLER_0_2_125
*555 FILLER_0_2_127
*556 FILLER_0_2_130
*557 FILLER_0_2_134
*558 FILLER_0_2_2
*559 FILLER_0_2_242
*560 FILLER_0_2_244
*561 FILLER_0_2_284
*562 FILLER_0_2_288
*563 FILLER_0_2_292
*564 FILLER_0_2_296
*565 FILLER_0_2_299
*566 FILLER_0_2_317
*567 FILLER_0_2_325
*568 FILLER_0_2_329
*569 FILLER_0_2_34
*570 FILLER_0_2_37
*571 FILLER_0_2_53
*572 FILLER_0_2_61
*573 FILLER_0_30_101
*574 FILLER_0_30_107
*575 FILLER_0_30_171
*576 FILLER_0_30_177
*577 FILLER_0_30_22
*578 FILLER_0_30_241
*579 FILLER_0_30_247
*580 FILLER_0_30_30
*581 FILLER_0_30_311
*582 FILLER_0_30_317
*583 FILLER_0_30_325
*584 FILLER_0_30_329
*585 FILLER_0_30_34
*586 FILLER_0_30_37
*587 FILLER_0_30_6
*588 FILLER_0_31_136
*589 FILLER_0_31_142
*590 FILLER_0_31_2
*591 FILLER_0_31_206
*592 FILLER_0_31_212
*593 FILLER_0_31_276
*594 FILLER_0_31_282
*595 FILLER_0_31_314
*596 FILLER_0_31_330
*597 FILLER_0_31_66
*598 FILLER_0_31_72
*599 FILLER_0_32_101
*600 FILLER_0_32_107
*601 FILLER_0_32_171
*602 FILLER_0_32_177
*603 FILLER_0_32_22
*604 FILLER_0_32_241
*605 FILLER_0_32_247
*606 FILLER_0_32_30
*607 FILLER_0_32_311
*608 FILLER_0_32_317
*609 FILLER_0_32_325
*610 FILLER_0_32_329
*611 FILLER_0_32_34
*612 FILLER_0_32_37
*613 FILLER_0_32_6
*614 FILLER_0_33_136
*615 FILLER_0_33_142
*616 FILLER_0_33_2
*617 FILLER_0_33_206
*618 FILLER_0_33_212
*619 FILLER_0_33_276
*620 FILLER_0_33_282
*621 FILLER_0_33_314
*622 FILLER_0_33_330
*623 FILLER_0_33_66
*624 FILLER_0_33_72
*625 FILLER_0_34_101
*626 FILLER_0_34_107
*627 FILLER_0_34_171
*628 FILLER_0_34_177
*629 FILLER_0_34_22
*630 FILLER_0_34_241
*631 FILLER_0_34_247
*632 FILLER_0_34_30
*633 FILLER_0_34_311
*634 FILLER_0_34_317
*635 FILLER_0_34_325
*636 FILLER_0_34_329
*637 FILLER_0_34_34
*638 FILLER_0_34_37
*639 FILLER_0_34_6
*640 FILLER_0_35_136
*641 FILLER_0_35_142
*642 FILLER_0_35_2
*643 FILLER_0_35_206
*644 FILLER_0_35_212
*645 FILLER_0_35_276
*646 FILLER_0_35_282
*647 FILLER_0_35_314
*648 FILLER_0_35_330
*649 FILLER_0_35_66
*650 FILLER_0_35_72
*651 FILLER_0_36_101
*652 FILLER_0_36_107
*653 FILLER_0_36_171
*654 FILLER_0_36_177
*655 FILLER_0_36_22
*656 FILLER_0_36_241
*657 FILLER_0_36_247
*658 FILLER_0_36_30
*659 FILLER_0_36_311
*660 FILLER_0_36_317
*661 FILLER_0_36_321
*662 FILLER_0_36_34
*663 FILLER_0_36_37
*664 FILLER_0_36_6
*665 FILLER_0_37_136
*666 FILLER_0_37_142
*667 FILLER_0_37_206
*668 FILLER_0_37_212
*669 FILLER_0_37_276
*670 FILLER_0_37_282
*671 FILLER_0_37_314
*672 FILLER_0_37_330
*673 FILLER_0_37_6
*674 FILLER_0_37_72
*675 FILLER_0_38_101
*676 FILLER_0_38_107
*677 FILLER_0_38_171
*678 FILLER_0_38_177
*679 FILLER_0_38_2
*680 FILLER_0_38_241
*681 FILLER_0_38_247
*682 FILLER_0_38_311
*683 FILLER_0_38_317
*684 FILLER_0_38_325
*685 FILLER_0_38_329
*686 FILLER_0_38_34
*687 FILLER_0_38_37
*688 FILLER_0_39_136
*689 FILLER_0_39_142
*690 FILLER_0_39_206
*691 FILLER_0_39_212
*692 FILLER_0_39_276
*693 FILLER_0_39_282
*694 FILLER_0_39_314
*695 FILLER_0_39_330
*696 FILLER_0_39_6
*697 FILLER_0_39_72
*698 FILLER_0_3_137
*699 FILLER_0_3_139
*700 FILLER_0_3_16
*701 FILLER_0_3_20
*702 FILLER_0_3_209
*703 FILLER_0_3_259
*704 FILLER_0_3_263
*705 FILLER_0_3_279
*706 FILLER_0_3_282
*707 FILLER_0_3_314
*708 FILLER_0_3_330
*709 FILLER_0_3_52
*710 FILLER_0_3_68
*711 FILLER_0_3_72
*712 FILLER_0_3_74
*713 FILLER_0_3_77
*714 FILLER_0_3_81
*715 FILLER_0_3_85
*716 FILLER_0_3_89
*717 FILLER_0_3_93
*718 FILLER_0_40_101
*719 FILLER_0_40_107
*720 FILLER_0_40_171
*721 FILLER_0_40_177
*722 FILLER_0_40_2
*723 FILLER_0_40_241
*724 FILLER_0_40_247
*725 FILLER_0_40_311
*726 FILLER_0_40_317
*727 FILLER_0_40_325
*728 FILLER_0_40_329
*729 FILLER_0_40_34
*730 FILLER_0_40_37
*731 FILLER_0_41_136
*732 FILLER_0_41_142
*733 FILLER_0_41_206
*734 FILLER_0_41_212
*735 FILLER_0_41_276
*736 FILLER_0_41_282
*737 FILLER_0_41_314
*738 FILLER_0_41_330
*739 FILLER_0_41_6
*740 FILLER_0_41_72
*741 FILLER_0_42_101
*742 FILLER_0_42_107
*743 FILLER_0_42_171
*744 FILLER_0_42_177
*745 FILLER_0_42_22
*746 FILLER_0_42_241
*747 FILLER_0_42_247
*748 FILLER_0_42_30
*749 FILLER_0_42_311
*750 FILLER_0_42_317
*751 FILLER_0_42_325
*752 FILLER_0_42_329
*753 FILLER_0_42_34
*754 FILLER_0_42_37
*755 FILLER_0_42_6
*756 FILLER_0_43_136
*757 FILLER_0_43_142
*758 FILLER_0_43_2
*759 FILLER_0_43_206
*760 FILLER_0_43_212
*761 FILLER_0_43_276
*762 FILLER_0_43_282
*763 FILLER_0_43_314
*764 FILLER_0_43_330
*765 FILLER_0_43_66
*766 FILLER_0_43_72
*767 FILLER_0_44_101
*768 FILLER_0_44_107
*769 FILLER_0_44_171
*770 FILLER_0_44_177
*771 FILLER_0_44_22
*772 FILLER_0_44_241
*773 FILLER_0_44_247
*774 FILLER_0_44_30
*775 FILLER_0_44_311
*776 FILLER_0_44_317
*777 FILLER_0_44_325
*778 FILLER_0_44_329
*779 FILLER_0_44_34
*780 FILLER_0_44_37
*781 FILLER_0_44_6
*782 FILLER_0_45_136
*783 FILLER_0_45_142
*784 FILLER_0_45_2
*785 FILLER_0_45_206
*786 FILLER_0_45_212
*787 FILLER_0_45_276
*788 FILLER_0_45_282
*789 FILLER_0_45_314
*790 FILLER_0_45_330
*791 FILLER_0_45_66
*792 FILLER_0_45_72
*793 FILLER_0_46_101
*794 FILLER_0_46_107
*795 FILLER_0_46_171
*796 FILLER_0_46_177
*797 FILLER_0_46_22
*798 FILLER_0_46_241
*799 FILLER_0_46_247
*800 FILLER_0_46_30
*801 FILLER_0_46_311
*802 FILLER_0_46_317
*803 FILLER_0_46_325
*804 FILLER_0_46_329
*805 FILLER_0_46_34
*806 FILLER_0_46_37
*807 FILLER_0_46_6
*808 FILLER_0_47_136
*809 FILLER_0_47_142
*810 FILLER_0_47_2
*811 FILLER_0_47_206
*812 FILLER_0_47_212
*813 FILLER_0_47_276
*814 FILLER_0_47_282
*815 FILLER_0_47_314
*816 FILLER_0_47_330
*817 FILLER_0_47_66
*818 FILLER_0_47_72
*819 FILLER_0_48_101
*820 FILLER_0_48_107
*821 FILLER_0_48_171
*822 FILLER_0_48_177
*823 FILLER_0_48_22
*824 FILLER_0_48_241
*825 FILLER_0_48_247
*826 FILLER_0_48_30
*827 FILLER_0_48_311
*828 FILLER_0_48_317
*829 FILLER_0_48_325
*830 FILLER_0_48_329
*831 FILLER_0_48_34
*832 FILLER_0_48_37
*833 FILLER_0_48_6
*834 FILLER_0_49_136
*835 FILLER_0_49_142
*836 FILLER_0_49_206
*837 FILLER_0_49_212
*838 FILLER_0_49_276
*839 FILLER_0_49_282
*840 FILLER_0_49_314
*841 FILLER_0_49_330
*842 FILLER_0_49_6
*843 FILLER_0_49_72
*844 FILLER_0_4_102
*845 FILLER_0_4_107
*846 FILLER_0_4_2
*847 FILLER_0_4_227
*848 FILLER_0_4_231
*849 FILLER_0_4_235
*850 FILLER_0_4_239
*851 FILLER_0_4_243
*852 FILLER_0_4_247
*853 FILLER_0_4_251
*854 FILLER_0_4_255
*855 FILLER_0_4_259
*856 FILLER_0_4_291
*857 FILLER_0_4_307
*858 FILLER_0_4_317
*859 FILLER_0_4_321
*860 FILLER_0_4_34
*861 FILLER_0_4_37
*862 FILLER_0_4_69
*863 FILLER_0_4_77
*864 FILLER_0_4_80
*865 FILLER_0_4_84
*866 FILLER_0_4_92
*867 FILLER_0_4_98
*868 FILLER_0_50_101
*869 FILLER_0_50_107
*870 FILLER_0_50_171
*871 FILLER_0_50_177
*872 FILLER_0_50_2
*873 FILLER_0_50_241
*874 FILLER_0_50_247
*875 FILLER_0_50_311
*876 FILLER_0_50_317
*877 FILLER_0_50_325
*878 FILLER_0_50_329
*879 FILLER_0_50_34
*880 FILLER_0_50_37
*881 FILLER_0_51_136
*882 FILLER_0_51_142
*883 FILLER_0_51_206
*884 FILLER_0_51_212
*885 FILLER_0_51_276
*886 FILLER_0_51_282
*887 FILLER_0_51_314
*888 FILLER_0_51_322
*889 FILLER_0_51_326
*890 FILLER_0_51_6
*891 FILLER_0_51_72
*892 FILLER_0_52_101
*893 FILLER_0_52_107
*894 FILLER_0_52_171
*895 FILLER_0_52_177
*896 FILLER_0_52_2
*897 FILLER_0_52_241
*898 FILLER_0_52_247
*899 FILLER_0_52_311
*900 FILLER_0_52_317
*901 FILLER_0_52_325
*902 FILLER_0_52_329
*903 FILLER_0_52_34
*904 FILLER_0_52_37
*905 FILLER_0_53_10
*906 FILLER_0_53_136
*907 FILLER_0_53_142
*908 FILLER_0_53_206
*909 FILLER_0_53_212
*910 FILLER_0_53_276
*911 FILLER_0_53_282
*912 FILLER_0_53_314
*913 FILLER_0_53_330
*914 FILLER_0_53_42
*915 FILLER_0_53_58
*916 FILLER_0_53_66
*917 FILLER_0_53_72
*918 FILLER_0_54_118
*919 FILLER_0_54_122
*920 FILLER_0_54_130
*921 FILLER_0_54_134
*922 FILLER_0_54_138
*923 FILLER_0_54_142
*924 FILLER_0_54_144
*925 FILLER_0_54_149
*926 FILLER_0_54_165
*927 FILLER_0_54_169
*928 FILLER_0_54_172
*929 FILLER_0_54_188
*930 FILLER_0_54_193
*931 FILLER_0_54_2
*932 FILLER_0_54_201
*933 FILLER_0_54_203
*934 FILLER_0_54_206
*935 FILLER_0_54_222
*936 FILLER_0_54_23
*937 FILLER_0_54_230
*938 FILLER_0_54_234
*939 FILLER_0_54_250
*940 FILLER_0_54_266
*941 FILLER_0_54_27
*942 FILLER_0_54_270
*943 FILLER_0_54_274
*944 FILLER_0_54_276
*945 FILLER_0_54_281
*946 FILLER_0_54_297
*947 FILLER_0_54_305
*948 FILLER_0_54_308
*949 FILLER_0_54_31
*950 FILLER_0_54_316
*951 FILLER_0_54_318
*952 FILLER_0_54_33
*953 FILLER_0_54_36
*954 FILLER_0_54_4
*955 FILLER_0_54_52
*956 FILLER_0_54_56
*957 FILLER_0_54_61
*958 FILLER_0_54_65
*959 FILLER_0_54_67
*960 FILLER_0_54_70
*961 FILLER_0_5_104
*962 FILLER_0_5_106
*963 FILLER_0_5_136
*964 FILLER_0_5_142
*965 FILLER_0_5_16
*966 FILLER_0_5_175
*967 FILLER_0_5_20
*968 FILLER_0_5_228
*969 FILLER_0_5_232
*970 FILLER_0_5_236
*971 FILLER_0_5_240
*972 FILLER_0_5_244
*973 FILLER_0_5_276
*974 FILLER_0_5_282
*975 FILLER_0_5_314
*976 FILLER_0_5_330
*977 FILLER_0_5_52
*978 FILLER_0_5_60
*979 FILLER_0_5_62
*980 FILLER_0_5_67
*981 FILLER_0_5_69
*982 FILLER_0_5_72
*983 FILLER_0_6_101
*984 FILLER_0_6_107
*985 FILLER_0_6_115
*986 FILLER_0_6_162
*987 FILLER_0_6_164
*988 FILLER_0_6_177
*989 FILLER_0_6_179
*990 FILLER_0_6_22
*991 FILLER_0_6_230
*992 FILLER_0_6_234
*993 FILLER_0_6_242
*994 FILLER_0_6_244
*995 FILLER_0_6_247
*996 FILLER_0_6_30
*997 FILLER_0_6_311
*998 FILLER_0_6_317
*999 FILLER_0_6_325
*1000 FILLER_0_6_329
*1001 FILLER_0_6_34
*1002 FILLER_0_6_37
*1003 FILLER_0_6_6
*1004 FILLER_0_7_104
*1005 FILLER_0_7_120
*1006 FILLER_0_7_124
*1007 FILLER_0_7_127
*1008 FILLER_0_7_131
*1009 FILLER_0_7_171
*1010 FILLER_0_7_181
*1011 FILLER_0_7_2
*1012 FILLER_0_7_203
*1013 FILLER_0_7_207
*1014 FILLER_0_7_209
*1015 FILLER_0_7_212
*1016 FILLER_0_7_276
*1017 FILLER_0_7_282
*1018 FILLER_0_7_314
*1019 FILLER_0_7_330
*1020 FILLER_0_7_66
*1021 FILLER_0_7_72
*1022 FILLER_0_8_101
*1023 FILLER_0_8_107
*1024 FILLER_0_8_139
*1025 FILLER_0_8_146
*1026 FILLER_0_8_148
*1027 FILLER_0_8_172
*1028 FILLER_0_8_174
*1029 FILLER_0_8_181
*1030 FILLER_0_8_191
*1031 FILLER_0_8_201
*1032 FILLER_0_8_22
*1033 FILLER_0_8_233
*1034 FILLER_0_8_241
*1035 FILLER_0_8_247
*1036 FILLER_0_8_30
*1037 FILLER_0_8_311
*1038 FILLER_0_8_317
*1039 FILLER_0_8_325
*1040 FILLER_0_8_329
*1041 FILLER_0_8_34
*1042 FILLER_0_8_37
*1043 FILLER_0_8_6
*1044 FILLER_0_9_136
*1045 FILLER_0_9_142
*1046 FILLER_0_9_148
*1047 FILLER_0_9_152
*1048 FILLER_0_9_154
*1049 FILLER_0_9_157
*1050 FILLER_0_9_167
*1051 FILLER_0_9_171
*1052 FILLER_0_9_175
*1053 FILLER_0_9_2
*1054 FILLER_0_9_207
*1055 FILLER_0_9_209
*1056 FILLER_0_9_212
*1057 FILLER_0_9_276
*1058 FILLER_0_9_282
*1059 FILLER_0_9_314
*1060 FILLER_0_9_330
*1061 FILLER_0_9_66
*1062 FILLER_0_9_72
*1063 PHY_EDGE_ROW_0_Left_55
*1064 PHY_EDGE_ROW_0_Right_0
*1065 PHY_EDGE_ROW_10_Left_65
*1066 PHY_EDGE_ROW_10_Right_10
*1067 PHY_EDGE_ROW_11_Left_66
*1068 PHY_EDGE_ROW_11_Right_11
*1069 PHY_EDGE_ROW_12_Left_67
*1070 PHY_EDGE_ROW_12_Right_12
*1071 PHY_EDGE_ROW_13_Left_68
*1072 PHY_EDGE_ROW_13_Right_13
*1073 PHY_EDGE_ROW_14_Left_69
*1074 PHY_EDGE_ROW_14_Right_14
*1075 PHY_EDGE_ROW_15_Left_70
*1076 PHY_EDGE_ROW_15_Right_15
*1077 PHY_EDGE_ROW_16_Left_71
*1078 PHY_EDGE_ROW_16_Right_16
*1079 PHY_EDGE_ROW_17_Left_72
*1080 PHY_EDGE_ROW_17_Right_17
*1081 PHY_EDGE_ROW_18_Left_73
*1082 PHY_EDGE_ROW_18_Right_18
*1083 PHY_EDGE_ROW_19_Left_74
*1084 PHY_EDGE_ROW_19_Right_19
*1085 PHY_EDGE_ROW_1_Left_56
*1086 PHY_EDGE_ROW_1_Right_1
*1087 PHY_EDGE_ROW_20_Left_75
*1088 PHY_EDGE_ROW_20_Right_20
*1089 PHY_EDGE_ROW_21_Left_76
*1090 PHY_EDGE_ROW_21_Right_21
*1091 PHY_EDGE_ROW_22_Left_77
*1092 PHY_EDGE_ROW_22_Right_22
*1093 PHY_EDGE_ROW_23_Left_78
*1094 PHY_EDGE_ROW_23_Right_23
*1095 PHY_EDGE_ROW_24_Left_79
*1096 PHY_EDGE_ROW_24_Right_24
*1097 PHY_EDGE_ROW_25_Left_80
*1098 PHY_EDGE_ROW_25_Right_25
*1099 PHY_EDGE_ROW_26_Left_81
*1100 PHY_EDGE_ROW_26_Right_26
*1101 PHY_EDGE_ROW_27_Left_82
*1102 PHY_EDGE_ROW_27_Right_27
*1103 PHY_EDGE_ROW_28_Left_83
*1104 PHY_EDGE_ROW_28_Right_28
*1105 PHY_EDGE_ROW_29_Left_84
*1106 PHY_EDGE_ROW_29_Right_29
*1107 PHY_EDGE_ROW_2_Left_57
*1108 PHY_EDGE_ROW_2_Right_2
*1109 PHY_EDGE_ROW_30_Left_85
*1110 PHY_EDGE_ROW_30_Right_30
*1111 PHY_EDGE_ROW_31_Left_86
*1112 PHY_EDGE_ROW_31_Right_31
*1113 PHY_EDGE_ROW_32_Left_87
*1114 PHY_EDGE_ROW_32_Right_32
*1115 PHY_EDGE_ROW_33_Left_88
*1116 PHY_EDGE_ROW_33_Right_33
*1117 PHY_EDGE_ROW_34_Left_89
*1118 PHY_EDGE_ROW_34_Right_34
*1119 PHY_EDGE_ROW_35_Left_90
*1120 PHY_EDGE_ROW_35_Right_35
*1121 PHY_EDGE_ROW_36_Left_91
*1122 PHY_EDGE_ROW_36_Right_36
*1123 PHY_EDGE_ROW_37_Left_92
*1124 PHY_EDGE_ROW_37_Right_37
*1125 PHY_EDGE_ROW_38_Left_93
*1126 PHY_EDGE_ROW_38_Right_38
*1127 PHY_EDGE_ROW_39_Left_94
*1128 PHY_EDGE_ROW_39_Right_39
*1129 PHY_EDGE_ROW_3_Left_58
*1130 PHY_EDGE_ROW_3_Right_3
*1131 PHY_EDGE_ROW_40_Left_95
*1132 PHY_EDGE_ROW_40_Right_40
*1133 PHY_EDGE_ROW_41_Left_96
*1134 PHY_EDGE_ROW_41_Right_41
*1135 PHY_EDGE_ROW_42_Left_97
*1136 PHY_EDGE_ROW_42_Right_42
*1137 PHY_EDGE_ROW_43_Left_98
*1138 PHY_EDGE_ROW_43_Right_43
*1139 PHY_EDGE_ROW_44_Left_99
*1140 PHY_EDGE_ROW_44_Right_44
*1141 PHY_EDGE_ROW_45_Left_100
*1142 PHY_EDGE_ROW_45_Right_45
*1143 PHY_EDGE_ROW_46_Left_101
*1144 PHY_EDGE_ROW_46_Right_46
*1145 PHY_EDGE_ROW_47_Left_102
*1146 PHY_EDGE_ROW_47_Right_47
*1147 PHY_EDGE_ROW_48_Left_103
*1148 PHY_EDGE_ROW_48_Right_48
*1149 PHY_EDGE_ROW_49_Left_104
*1150 PHY_EDGE_ROW_49_Right_49
*1151 PHY_EDGE_ROW_4_Left_59
*1152 PHY_EDGE_ROW_4_Right_4
*1153 PHY_EDGE_ROW_50_Left_105
*1154 PHY_EDGE_ROW_50_Right_50
*1155 PHY_EDGE_ROW_51_Left_106
*1156 PHY_EDGE_ROW_51_Right_51
*1157 PHY_EDGE_ROW_52_Left_107
*1158 PHY_EDGE_ROW_52_Right_52
*1159 PHY_EDGE_ROW_53_Left_108
*1160 PHY_EDGE_ROW_53_Right_53
*1161 PHY_EDGE_ROW_54_Left_109
*1162 PHY_EDGE_ROW_54_Right_54
*1163 PHY_EDGE_ROW_5_Left_60
*1164 PHY_EDGE_ROW_5_Right_5
*1165 PHY_EDGE_ROW_6_Left_61
*1166 PHY_EDGE_ROW_6_Right_6
*1167 PHY_EDGE_ROW_7_Left_62
*1168 PHY_EDGE_ROW_7_Right_7
*1169 PHY_EDGE_ROW_8_Left_63
*1170 PHY_EDGE_ROW_8_Right_8
*1171 PHY_EDGE_ROW_9_Left_64
*1172 PHY_EDGE_ROW_9_Right_9
*1173 TAP_TAPCELL_ROW_0_110
*1174 TAP_TAPCELL_ROW_0_111
*1175 TAP_TAPCELL_ROW_0_112
*1176 TAP_TAPCELL_ROW_0_113
*1177 TAP_TAPCELL_ROW_0_114
*1178 TAP_TAPCELL_ROW_0_115
*1179 TAP_TAPCELL_ROW_0_116
*1180 TAP_TAPCELL_ROW_0_117
*1181 TAP_TAPCELL_ROW_0_118
*1182 TAP_TAPCELL_ROW_10_159
*1183 TAP_TAPCELL_ROW_10_160
*1184 TAP_TAPCELL_ROW_10_161
*1185 TAP_TAPCELL_ROW_10_162
*1186 TAP_TAPCELL_ROW_10_163
*1187 TAP_TAPCELL_ROW_11_164
*1188 TAP_TAPCELL_ROW_11_165
*1189 TAP_TAPCELL_ROW_11_166
*1190 TAP_TAPCELL_ROW_11_167
*1191 TAP_TAPCELL_ROW_12_168
*1192 TAP_TAPCELL_ROW_12_169
*1193 TAP_TAPCELL_ROW_12_170
*1194 TAP_TAPCELL_ROW_12_171
*1195 TAP_TAPCELL_ROW_12_172
*1196 TAP_TAPCELL_ROW_13_173
*1197 TAP_TAPCELL_ROW_13_174
*1198 TAP_TAPCELL_ROW_13_175
*1199 TAP_TAPCELL_ROW_13_176
*1200 TAP_TAPCELL_ROW_14_177
*1201 TAP_TAPCELL_ROW_14_178
*1202 TAP_TAPCELL_ROW_14_179
*1203 TAP_TAPCELL_ROW_14_180
*1204 TAP_TAPCELL_ROW_14_181
*1205 TAP_TAPCELL_ROW_15_182
*1206 TAP_TAPCELL_ROW_15_183
*1207 TAP_TAPCELL_ROW_15_184
*1208 TAP_TAPCELL_ROW_15_185
*1209 TAP_TAPCELL_ROW_16_186
*1210 TAP_TAPCELL_ROW_16_187
*1211 TAP_TAPCELL_ROW_16_188
*1212 TAP_TAPCELL_ROW_16_189
*1213 TAP_TAPCELL_ROW_16_190
*1214 TAP_TAPCELL_ROW_17_191
*1215 TAP_TAPCELL_ROW_17_192
*1216 TAP_TAPCELL_ROW_17_193
*1217 TAP_TAPCELL_ROW_17_194
*1218 TAP_TAPCELL_ROW_18_195
*1219 TAP_TAPCELL_ROW_18_196
*1220 TAP_TAPCELL_ROW_18_197
*1221 TAP_TAPCELL_ROW_18_198
*1222 TAP_TAPCELL_ROW_18_199
*1223 TAP_TAPCELL_ROW_19_200
*1224 TAP_TAPCELL_ROW_19_201
*1225 TAP_TAPCELL_ROW_19_202
*1226 TAP_TAPCELL_ROW_19_203
*1227 TAP_TAPCELL_ROW_1_119
*1228 TAP_TAPCELL_ROW_1_120
*1229 TAP_TAPCELL_ROW_1_121
*1230 TAP_TAPCELL_ROW_1_122
*1231 TAP_TAPCELL_ROW_20_204
*1232 TAP_TAPCELL_ROW_20_205
*1233 TAP_TAPCELL_ROW_20_206
*1234 TAP_TAPCELL_ROW_20_207
*1235 TAP_TAPCELL_ROW_20_208
*1236 TAP_TAPCELL_ROW_21_209
*1237 TAP_TAPCELL_ROW_21_210
*1238 TAP_TAPCELL_ROW_21_211
*1239 TAP_TAPCELL_ROW_21_212
*1240 TAP_TAPCELL_ROW_22_213
*1241 TAP_TAPCELL_ROW_22_214
*1242 TAP_TAPCELL_ROW_22_215
*1243 TAP_TAPCELL_ROW_22_216
*1244 TAP_TAPCELL_ROW_22_217
*1245 TAP_TAPCELL_ROW_23_218
*1246 TAP_TAPCELL_ROW_23_219
*1247 TAP_TAPCELL_ROW_23_220
*1248 TAP_TAPCELL_ROW_23_221
*1249 TAP_TAPCELL_ROW_24_222
*1250 TAP_TAPCELL_ROW_24_223
*1251 TAP_TAPCELL_ROW_24_224
*1252 TAP_TAPCELL_ROW_24_225
*1253 TAP_TAPCELL_ROW_24_226
*1254 TAP_TAPCELL_ROW_25_227
*1255 TAP_TAPCELL_ROW_25_228
*1256 TAP_TAPCELL_ROW_25_229
*1257 TAP_TAPCELL_ROW_25_230
*1258 TAP_TAPCELL_ROW_26_231
*1259 TAP_TAPCELL_ROW_26_232
*1260 TAP_TAPCELL_ROW_26_233
*1261 TAP_TAPCELL_ROW_26_234
*1262 TAP_TAPCELL_ROW_26_235
*1263 TAP_TAPCELL_ROW_27_236
*1264 TAP_TAPCELL_ROW_27_237
*1265 TAP_TAPCELL_ROW_27_238
*1266 TAP_TAPCELL_ROW_27_239
*1267 TAP_TAPCELL_ROW_28_240
*1268 TAP_TAPCELL_ROW_28_241
*1269 TAP_TAPCELL_ROW_28_242
*1270 TAP_TAPCELL_ROW_28_243
*1271 TAP_TAPCELL_ROW_28_244
*1272 TAP_TAPCELL_ROW_29_245
*1273 TAP_TAPCELL_ROW_29_246
*1274 TAP_TAPCELL_ROW_29_247
*1275 TAP_TAPCELL_ROW_29_248
*1276 TAP_TAPCELL_ROW_2_123
*1277 TAP_TAPCELL_ROW_2_124
*1278 TAP_TAPCELL_ROW_2_125
*1279 TAP_TAPCELL_ROW_2_126
*1280 TAP_TAPCELL_ROW_2_127
*1281 TAP_TAPCELL_ROW_30_249
*1282 TAP_TAPCELL_ROW_30_250
*1283 TAP_TAPCELL_ROW_30_251
*1284 TAP_TAPCELL_ROW_30_252
*1285 TAP_TAPCELL_ROW_30_253
*1286 TAP_TAPCELL_ROW_31_254
*1287 TAP_TAPCELL_ROW_31_255
*1288 TAP_TAPCELL_ROW_31_256
*1289 TAP_TAPCELL_ROW_31_257
*1290 TAP_TAPCELL_ROW_32_258
*1291 TAP_TAPCELL_ROW_32_259
*1292 TAP_TAPCELL_ROW_32_260
*1293 TAP_TAPCELL_ROW_32_261
*1294 TAP_TAPCELL_ROW_32_262
*1295 TAP_TAPCELL_ROW_33_263
*1296 TAP_TAPCELL_ROW_33_264
*1297 TAP_TAPCELL_ROW_33_265
*1298 TAP_TAPCELL_ROW_33_266
*1299 TAP_TAPCELL_ROW_34_267
*1300 TAP_TAPCELL_ROW_34_268
*1301 TAP_TAPCELL_ROW_34_269
*1302 TAP_TAPCELL_ROW_34_270
*1303 TAP_TAPCELL_ROW_34_271
*1304 TAP_TAPCELL_ROW_35_272
*1305 TAP_TAPCELL_ROW_35_273
*1306 TAP_TAPCELL_ROW_35_274
*1307 TAP_TAPCELL_ROW_35_275
*1308 TAP_TAPCELL_ROW_36_276
*1309 TAP_TAPCELL_ROW_36_277
*1310 TAP_TAPCELL_ROW_36_278
*1311 TAP_TAPCELL_ROW_36_279
*1312 TAP_TAPCELL_ROW_36_280
*1313 TAP_TAPCELL_ROW_37_281
*1314 TAP_TAPCELL_ROW_37_282
*1315 TAP_TAPCELL_ROW_37_283
*1316 TAP_TAPCELL_ROW_37_284
*1317 TAP_TAPCELL_ROW_38_285
*1318 TAP_TAPCELL_ROW_38_286
*1319 TAP_TAPCELL_ROW_38_287
*1320 TAP_TAPCELL_ROW_38_288
*1321 TAP_TAPCELL_ROW_38_289
*1322 TAP_TAPCELL_ROW_39_290
*1323 TAP_TAPCELL_ROW_39_291
*1324 TAP_TAPCELL_ROW_39_292
*1325 TAP_TAPCELL_ROW_39_293
*1326 TAP_TAPCELL_ROW_3_128
*1327 TAP_TAPCELL_ROW_3_129
*1328 TAP_TAPCELL_ROW_3_130
*1329 TAP_TAPCELL_ROW_3_131
*1330 TAP_TAPCELL_ROW_40_294
*1331 TAP_TAPCELL_ROW_40_295
*1332 TAP_TAPCELL_ROW_40_296
*1333 TAP_TAPCELL_ROW_40_297
*1334 TAP_TAPCELL_ROW_40_298
*1335 TAP_TAPCELL_ROW_41_299
*1336 TAP_TAPCELL_ROW_41_300
*1337 TAP_TAPCELL_ROW_41_301
*1338 TAP_TAPCELL_ROW_41_302
*1339 TAP_TAPCELL_ROW_42_303
*1340 TAP_TAPCELL_ROW_42_304
*1341 TAP_TAPCELL_ROW_42_305
*1342 TAP_TAPCELL_ROW_42_306
*1343 TAP_TAPCELL_ROW_42_307
*1344 TAP_TAPCELL_ROW_43_308
*1345 TAP_TAPCELL_ROW_43_309
*1346 TAP_TAPCELL_ROW_43_310
*1347 TAP_TAPCELL_ROW_43_311
*1348 TAP_TAPCELL_ROW_44_312
*1349 TAP_TAPCELL_ROW_44_313
*1350 TAP_TAPCELL_ROW_44_314
*1351 TAP_TAPCELL_ROW_44_315
*1352 TAP_TAPCELL_ROW_44_316
*1353 TAP_TAPCELL_ROW_45_317
*1354 TAP_TAPCELL_ROW_45_318
*1355 TAP_TAPCELL_ROW_45_319
*1356 TAP_TAPCELL_ROW_45_320
*1357 TAP_TAPCELL_ROW_46_321
*1358 TAP_TAPCELL_ROW_46_322
*1359 TAP_TAPCELL_ROW_46_323
*1360 TAP_TAPCELL_ROW_46_324
*1361 TAP_TAPCELL_ROW_46_325
*1362 TAP_TAPCELL_ROW_47_326
*1363 TAP_TAPCELL_ROW_47_327
*1364 TAP_TAPCELL_ROW_47_328
*1365 TAP_TAPCELL_ROW_47_329
*1366 TAP_TAPCELL_ROW_48_330
*1367 TAP_TAPCELL_ROW_48_331
*1368 TAP_TAPCELL_ROW_48_332
*1369 TAP_TAPCELL_ROW_48_333
*1370 TAP_TAPCELL_ROW_48_334
*1371 TAP_TAPCELL_ROW_49_335
*1372 TAP_TAPCELL_ROW_49_336
*1373 TAP_TAPCELL_ROW_49_337
*1374 TAP_TAPCELL_ROW_49_338
*1375 TAP_TAPCELL_ROW_4_132
*1376 TAP_TAPCELL_ROW_4_133
*1377 TAP_TAPCELL_ROW_4_134
*1378 TAP_TAPCELL_ROW_4_135
*1379 TAP_TAPCELL_ROW_4_136
*1380 TAP_TAPCELL_ROW_50_339