*SPEF "ieee 1481-1999"
*DESIGN "wb_buttons_leds"
*DATE "11:11:11 Fri 11 11, 1111"
*VENDOR "OpenRCX"
*PROGRAM "Parallel Extraction"
*VERSION "1.0"
*DESIGN_FLOW "NAME_SCOPE LOCAL" "PIN_CAP NONE"
*DIVIDER /
*DELIMITER :
*BUS_DELIMITER []
*T_UNIT 1 NS
*C_UNIT 1 PF
*R_UNIT 1 OHM
*L_UNIT 1 HENRY

*NAME_MAP
*3 buttons[0]
*4 buttons[1]
*5 clk
*6 i_wb_addr[0]
*7 i_wb_addr[10]
*8 i_wb_addr[11]
*9 i_wb_addr[12]
*10 i_wb_addr[13]
*11 i_wb_addr[14]
*12 i_wb_addr[15]
*13 i_wb_addr[16]
*14 i_wb_addr[17]
*15 i_wb_addr[18]
*16 i_wb_addr[19]
*17 i_wb_addr[1]
*18 i_wb_addr[20]
*19 i_wb_addr[21]
*20 i_wb_addr[22]
*21 i_wb_addr[23]
*22 i_wb_addr[24]
*23 i_wb_addr[25]
*24 i_wb_addr[26]
*25 i_wb_addr[27]
*26 i_wb_addr[28]
*27 i_wb_addr[29]
*28 i_wb_addr[2]
*29 i_wb_addr[30]
*30 i_wb_addr[31]
*31 i_wb_addr[3]
*32 i_wb_addr[4]
*33 i_wb_addr[5]
*34 i_wb_addr[6]
*35 i_wb_addr[7]
*36 i_wb_addr[8]
*37 i_wb_addr[9]
*38 i_wb_cyc
*39 i_wb_data[0]
*40 i_wb_data[1]
*41 i_wb_stb
*42 i_wb_we
*43 net46
*44 net47
*45 leds[0]
*46 leds[1]
*47 o_wb_ack
*48 o_wb_data[0]
*49 net56
*50 net57
*51 net58
*52 net59
*53 net60
*54 net61
*55 net62
*56 net63
*57 net64
*58 net65
*59 o_wb_data[1]
*60 net66
*61 net67
*62 net68
*63 net69
*64 net70
*65 net71
*66 net72
*67 net73
*68 net74
*69 net75
*70 net48
*71 net76
*72 net77
*73 net49
*74 net50
*75 net51
*76 net52
*77 net53
*78 net54
*79 net55
*80 net78
*81 reset
*82 _000_
*83 _001_
*84 _002_
*85 _003_
*86 _004_
*87 _005_
*88 _006_
*89 _007_
*90 _008_
*91 _009_
*92 _010_
*93 _011_
*94 _012_
*95 _013_
*96 _014_
*97 _015_
*98 _016_
*99 _017_
*100 _018_
*101 _019_
*102 _020_
*103 _021_
*104 _022_
*105 _023_
*106 _024_
*107 _025_
*108 _026_
*109 _027_
*110 _028_
*111 _029_
*112 _030_
*113 _031_
*114 _032_
*115 _033_
*116 _034_
*117 _035_
*118 _036_
*119 _037_
*120 _038_
*121 _039_
*122 clknet_0_clk
*123 clknet_1_0__leaf_clk
*124 clknet_1_1__leaf_clk
*125 net1
*126 net10
*127 net11
*128 net12
*129 net13
*130 net14
*131 net15
*132 net16
*133 net17
*134 net18
*135 net19
*136 net2
*137 net20
*138 net21
*139 net22
*140 net23
*141 net24
*142 net25
*143 net26
*144 net27
*145 net28
*146 net29
*147 net3
*148 net30
*149 net31
*150 net32
*151 net33
*152 net34
*153 net35
*154 net36
*155 net37
*156 net38
*157 net39
*158 net4
*159 net40
*160 net41
*161 net42
*162 net43
*163 net44
*164 net45
*165 net5
*166 net6
*167 net7
*168 net8
*169 net9
*170 ANTENNA__061__A2
*171 ANTENNA__064__A1
*172 ANTENNA__065__C
*173 ANTENNA__068__A1
*174 ANTENNA__068__B
*175 ANTENNA__070__C
*176 ANTENNA__072__B
*177 ANTENNA__074__A3
*178 ANTENNA__076__B
*179 ANTENNA__078__B
*180 ANTENNA_clkbuf_0_clk_I
*181 ANTENNA_input10_I
*182 ANTENNA_input11_I
*183 ANTENNA_input12_I
*184 ANTENNA_input13_I
*185 ANTENNA_input14_I
*186 ANTENNA_input15_I
*187 ANTENNA_input16_I
*188 ANTENNA_input17_I
*189 ANTENNA_input18_I
*190 ANTENNA_input19_I
*191 ANTENNA_input1_I
*192 ANTENNA_input20_I
*193 ANTENNA_input21_I
*194 ANTENNA_input22_I
*195 ANTENNA_input23_I
*196 ANTENNA_input24_I
*197 ANTENNA_input25_I
*198 ANTENNA_input26_I
*199 ANTENNA_input27_I
*200 ANTENNA_input28_I
*201 ANTENNA_input29_I
*202 ANTENNA_input2_I
*203 ANTENNA_input30_I
*204 ANTENNA_input31_I
*205 ANTENNA_input32_I
*206 ANTENNA_input33_I
*207 ANTENNA_input34_I
*208 ANTENNA_input35_I
*209 ANTENNA_input36_I
*210 ANTENNA_input37_I
*211 ANTENNA_input38_I
*212 ANTENNA_input39_I
*213 ANTENNA_input3_I
*214 ANTENNA_input40_I
*215 ANTENNA_input4_I
*216 ANTENNA_input5_I
*217 ANTENNA_input6_I
*218 ANTENNA_input7_I
*219 ANTENNA_input8_I
*220 ANTENNA_input9_I
*221 ANTENNA_output44_I
*222 FILLER_0_0_144
*223 FILLER_0_0_2
*224 FILLER_0_0_49
*225 FILLER_0_0_51
*226 FILLER_0_10_101
*227 FILLER_0_10_107
*228 FILLER_0_10_111
*229 FILLER_0_10_115
*230 FILLER_0_10_121
*231 FILLER_0_10_125
*232 FILLER_0_10_143
*233 FILLER_0_10_151
*234 FILLER_0_10_22
*235 FILLER_0_10_26
*236 FILLER_0_10_29
*237 FILLER_0_10_33
*238 FILLER_0_10_37
*239 FILLER_0_10_41
*240 FILLER_0_10_45
*241 FILLER_0_10_49
*242 FILLER_0_10_53
*243 FILLER_0_10_57
*244 FILLER_0_10_89
*245 FILLER_0_10_93
*246 FILLER_0_10_97
*247 FILLER_0_11_10
*248 FILLER_0_11_114
*249 FILLER_0_11_118
*250 FILLER_0_11_122
*251 FILLER_0_11_126
*252 FILLER_0_11_130
*253 FILLER_0_11_138
*254 FILLER_0_11_33
*255 FILLER_0_11_36
*256 FILLER_0_11_40
*257 FILLER_0_11_44
*258 FILLER_0_11_48
*259 FILLER_0_11_52
*260 FILLER_0_11_54
*261 FILLER_0_11_59
*262 FILLER_0_11_67
*263 FILLER_0_11_70
*264 FILLER_0_11_86
*265 FILLER_0_11_94
*266 FILLER_0_11_98
*267 FILLER_0_1_148
*268 FILLER_0_1_16
*269 FILLER_0_1_18
*270 FILLER_0_1_2
*271 FILLER_0_1_80
*272 FILLER_0_2_150
*273 FILLER_0_2_2
*274 FILLER_0_2_37
*275 FILLER_0_2_9
*276 FILLER_0_3_150
*277 FILLER_0_3_2
*278 FILLER_0_3_72
*279 FILLER_0_3_74
*280 FILLER_0_3_81
*281 FILLER_0_3_83
*282 FILLER_0_4_2
*283 FILLER_0_4_48
*284 FILLER_0_4_92
*285 FILLER_0_5_14
*286 FILLER_0_5_22
*287 FILLER_0_5_68
*288 FILLER_0_5_72
*289 FILLER_0_5_79
*290 FILLER_0_5_86
*291 FILLER_0_6_11
*292 FILLER_0_6_13
*293 FILLER_0_6_150
*294 FILLER_0_6_2
*295 FILLER_0_6_22
*296 FILLER_0_6_32
*297 FILLER_0_6_34
*298 FILLER_0_6_4
*299 FILLER_0_6_47
*300 FILLER_0_7_109
*301 FILLER_0_7_148
*302 FILLER_0_7_30
*303 FILLER_0_7_32
*304 FILLER_0_8_103
*305 FILLER_0_8_30
*306 FILLER_0_8_34
*307 FILLER_0_8_37
*308 FILLER_0_8_41
*309 FILLER_0_8_45
*310 FILLER_0_8_49
*311 FILLER_0_8_53
*312 FILLER_0_8_57
*313 FILLER_0_8_61
*314 FILLER_0_8_65
*315 FILLER_0_8_69
*316 FILLER_0_8_73
*317 FILLER_0_8_77
*318 FILLER_0_8_86
*319 FILLER_0_9_101
*320 FILLER_0_9_113
*321 FILLER_0_9_127
*322 FILLER_0_9_148
*323 FILLER_0_9_51
*324 FILLER_0_9_55
*325 FILLER_0_9_59
*326 FILLER_0_9_63
*327 FILLER_0_9_67
*328 FILLER_0_9_72
*329 FILLER_0_9_80
*330 FILLER_0_9_82
*331 FILLER_0_9_85
*332 FILLER_0_9_89
*333 FILLER_0_9_93
*334 FILLER_0_9_97
*335 PHY_EDGE_ROW_0_Left_12
*336 PHY_EDGE_ROW_0_Right_0
*337 PHY_EDGE_ROW_10_Left_22
*338 PHY_EDGE_ROW_10_Right_10
*339 PHY_EDGE_ROW_11_Left_23
*340 PHY_EDGE_ROW_11_Right_11
*341 PHY_EDGE_ROW_1_Left_13
*342 PHY_EDGE_ROW_1_Right_1
*343 PHY_EDGE_ROW_2_Left_14
*344 PHY_EDGE_ROW_2_Right_2
*345 PHY_EDGE_ROW_3_Left_15
*346 PHY_EDGE_ROW_3_Right_3
*347 PHY_EDGE_ROW_4_Left_16
*348 PHY_EDGE_ROW_4_Right_4
*349 PHY_EDGE_ROW_5_Left_17
*350 PHY_EDGE_ROW_5_Right_5
*351 PHY_EDGE_ROW_6_Left_18
*352 PHY_EDGE_ROW_6_Right_6
*353 PHY_EDGE_ROW_7_Left_19
*354 PHY_EDGE_ROW_7_Right_7
*355 PHY_EDGE_ROW_8_Left_20
*356 PHY_EDGE_ROW_8_Right_8
*357 PHY_EDGE_ROW_9_Left_21
*358 PHY_EDGE_ROW_9_Right_9
*359 TAP_TAPCELL_ROW_0_24
*360 TAP_TAPCELL_ROW_0_25
*361 TAP_TAPCELL_ROW_0_26
*362 TAP_TAPCELL_ROW_0_27
*363 TAP_TAPCELL_ROW_10_46
*364 TAP_TAPCELL_ROW_10_47
*365 TAP_TAPCELL_ROW_11_48
*366 TAP_TAPCELL_ROW_11_49
*367 TAP_TAPCELL_ROW_11_50
*368 TAP_TAPCELL_ROW_11_51
*369 TAP_TAPCELL_ROW_1_28
*370 TAP_TAPCELL_ROW_1_29
*371 TAP_TAPCELL_ROW_2_30
*372 TAP_TAPCELL_ROW_2_31
*373 TAP_TAPCELL_ROW_3_32
*374 TAP_TAPCELL_ROW_3_33
*375 TAP_TAPCELL_ROW_4_34
*376 TAP_TAPCELL_ROW_4_35
*377 TAP_TAPCELL_ROW_5_36
*378 TAP_TAPCELL_ROW_5_37
*379 TAP_TAPCELL_ROW_6_38
*380 TAP_TAPCELL_ROW_6_39
*381 TAP_TAPCELL_ROW_7_40
*382 TAP_TAPCELL_ROW_7_41
*383 TAP_TAPCELL_ROW_8_42
*384 TAP_TAPCELL_ROW_8_43
*385 TAP_TAPCELL_ROW_9_44
*386 TAP_TAPCELL_ROW_9_45
*387 _040_
*388 _041_
*389 _042_
*390 _043_
*391 _044_
*392 _045_
*393 _046_
*394 _047_
*395 _048_
*396 _049_
*397 _050_
*398 _051_
*399 _052_
*400 _053_
*401 _054_
*402 _055_
*403 _056_
*404 _057_
*405 _058_
*406 _059_
*407 _060_
*408 _061_
*409 _062_
*410 _063_
*411 _064_
*412 _065_
*413 _066_
*414 _067_
*415 _068_
*416 _069_
*417 _070_
*418 _071_
*419 _072_
*420 _073_
*421 _074_
*422 _075_
*423 _076_
*424 _077_
*425 _078_
*426 _079_
*427 _080_
*428 _081_
*429 _082_
*430 _083_
*431 _084_
*432 clkbuf_0_clk
*433 clkbuf_1_0__f_clk
*434 clkbuf_1_1__f_clk
*435 input1
*436 input10
*437 input11
*438 input12
*439 input13
*440 input14
*441 input15
*442 input16
*443 input17
*444 input18
*445 input19
*446 input2
*447 input20
*448 input21
*449 input22
*450 input23
*451 input24
*452 input25
*453 input26
*454 input27
*455 input28
*456 input29
*457 input3
*458 input30
*459 input31
*460 input32
*461 input33
*462 input34
*463 input35
*464 input36
*465 input37
*466 input38
*467 input39
*468 input4
*469 input40
*470 input5
*471 input6
*472 input7
*473 input8
*474 input9
*475 output41
*476 output42
*477 output43
*478 output44
*479 output45
*480 wb_buttons_leds_46
*481 wb_buttons_leds_47
*482 wb_buttons_leds_48
*483 wb_buttons_leds_49
*484 wb_buttons_leds_50
*485 wb_buttons_leds_51
*486 wb_buttons_leds_52
*487 wb_buttons_leds_53
*488 wb_buttons_leds_54
*489 wb_buttons_leds_55
*490 wb_buttons_leds_56
*491 wb_buttons_leds_57
*492 wb_buttons_leds_58
*493 wb_buttons_leds_59
*494 wb_buttons_leds_60
*495 wb_buttons_leds_61
*496 wb_buttons_leds_62
*497 wb_buttons_leds_63
*498 wb_buttons_leds_64
*499 wb_buttons_leds_65
*500 wb_buttons_leds_66
*501 wb_buttons_leds_67
*502 wb_buttons_leds_68
*503 wb_buttons_leds_69
*504 wb_buttons_leds_70
*505 wb_buttons_leds_71
*506 wb_buttons_leds_72
*507 wb_buttons_leds_73
*508 wb_buttons_leds_74
*509 wb_buttons_leds_75
*510 wb_buttons_leds_76
*511 wb_buttons_leds_77
*512 wb_buttons_leds_78

*PORTS
buttons[0] I
buttons[1] I
clk I
i_wb_addr[0] I
i_wb_addr[10] I
i_wb_addr[11] I
i_wb_addr[12] I
i_wb_addr[13] I
i_wb_addr[14] I
i_wb_addr[15] I
i_wb_addr[16] I
i_wb_addr[17] I
i_wb_addr[18] I
i_wb_addr[19] I
i_wb_addr[1] I
i_wb_addr[20] I
i_wb_addr[21] I
i_wb_addr[22] I
i_wb_addr[23] I
i_wb_addr[24] I
i_wb_addr[25] I
i_wb_addr[26] I
i_wb_addr[27] I
i_wb_addr[28] I
i_wb_addr[29] I
i_wb_addr[2] I
i_wb_addr[30] I
i_wb_addr[31] I
i_wb_addr[3] I
i_wb_addr[4] I
i_wb_addr[5] I
i_wb_addr[6] I
i_wb_addr[7] I
i_wb_addr[8] I
i_wb_addr[9] I
i_wb_cyc I
i_wb_data[0] I
i_wb_data[1] I
i_wb_stb I
i_wb_we I
led_enb[0] O
led_enb[1] O
leds[0] O
leds[1] O
o_wb_ack O
o_wb_data[0] O
o_wb_data[10] O
o_wb_data[11] O
o_wb_data[12] O
o_wb_data[13] O
o_wb_data[14] O
o_wb_data[15] O
o_wb_data[16] O
o_wb_data[17] O
o_wb_data[18] O
o_wb_data[19] O
o_wb_data[1] O
o_wb_data[20] O
o_wb_data[21] O
o_wb_data[22] O
o_wb_data[23] O
o_wb_data[24] O
o_wb_data[25] O
o_wb_data[26] O
o_wb_data[27] O
o_wb_data[28] O
o_wb_data[29] O
o_wb_data[2] O
o_wb_data[30] O
o_wb_data[31] O
o_wb_data[3] O
o_wb_data[4] O
o_wb_data[5] O
o_wb_data[6] O
o_wb_data[7] O
o_wb_data[8] O
o_wb_data[9] O
o_wb_stall O
reset I

*D_NET *3 0.0086114
*CONN
*P buttons[0] I
*I *435:I I *D gf180mcu_fd_sc_mcu7t5v0__clkbuf_1
*I *191:I I *D gf180mcu_fd_sc_mcu7t5v0__antenna
*CAP
1 buttons[0] 0.00104432
2 *435:I 0.000251857
3 *191:I 0
4 *3:13 0.00129617
5 *435:I *214:I 0.000166071
6 *435:I *81:21 0.000409866
7 *435:I *163:20 0.00128632
8 *3:13 *172:I 0
9 *3:13 *198:I 1.34641e-05
10 *3:13 *415:A1 0
11 *3:13 *443:I 0.00260904
12 *3:13 *29:19 0.000222014
13 *3:13 *30:19 0.000714977
14 *3:13 *81:21 0.000419761
15 *3:13 *90:12 0.000172481
16 *3:13 *163:8 5.06377e-06
17 *3:13 *163:20 0
*RES
1 buttons[0] *3:13 21.645 
2 *3:13 *191:I 9 
3 *3:13 *435:I 13.14 
*END

*D_NET *4 0.00328678
*CONN
*P buttons[1] I
*I *446:I I *D gf180mcu_fd_sc_mcu7t5v0__clkbuf_1
*I *202:I I *D gf180mcu_fd_sc_mcu7t5v0__antenna
*CAP
1 buttons[1] 0.000387168
2 *446:I 0
3 *202:I 0.000316528
4 *4:7 0.000703695
5 *202:I *196:I 0.000371222
6 *202:I *199:I 0.00134668
7 *202:I *417:A1 4.03719e-05
8 *202:I *451:I 0.000121109
*RES
1 buttons[1] *4:7 2.475 
2 *4:7 *202:I 14.13 
3 *4:7 *446:I 9 
*END

*D_NET *5 0.0121438
*CONN
*P clk I
*I *432:I I *D gf180mcu_fd_sc_mcu7t5v0__clkbuf_16
*I *180:I I *D gf180mcu_fd_sc_mcu7t5v0__antenna
*CAP
1 clk 0.00106113
2 *432:I 0
3 *180:I 0.00118629
4 *5:19 0.00224742
5 *180:I *184:I 0.000559685
6 *180:I *193:I 0.000198085
7 *180:I *395:A3 0.00043778
8 *180:I *412:B 0.00073231
9 *180:I *416:A2 0.000260611
10 *180:I *109:8 0.00126245
11 *5:19 *172:I 0.000745622
12 *5:19 *390:I 0.000233578
13 *5:19 *395:A4 0.000216251
14 *5:19 *399:A2 0.00101984
15 *5:19 *399:A4 1.34588e-05
16 *5:19 *412:B 0.000694994
17 *5:19 *412:C 0.000346016
18 *5:19 *415:A2 0.000159362
19 *5:19 *416:B 0.00012929
20 *5:19 *441:I 0
21 *5:19 *29:19 0
22 *5:19 *30:19 0.000330776
23 *5:19 *81:21 0.000139816
24 *5:19 *90:12 0.000141427
25 *5:19 *124:8 2.29997e-05
26 *5:19 *157:115 4.56941e-06
*RES
1 clk *5:19 22.275 
2 *5:19 *180:I 25.29 
3 *5:19 *432:I 4.5 
*END

*D_NET *6 0.0143152
*CONN
*P i_wb_addr[0] I
*I *213:I I *D gf180mcu_fd_sc_mcu7t5v0__antenna
*I *457:I I *D gf180mcu_fd_sc_mcu7t5v0__buf_1
*CAP
1 i_wb_addr[0] 0.000695463
2 *213:I 0.00130736
3 *457:I 3.62278e-05
4 *6:13 0.00203905
5 *213:I o_wb_data[17] 0.000286443
6 *213:I o_wb_data[18] 6.12178e-05
7 *213:I o_wb_data[19] 1.79155e-05
8 *213:I o_wb_data[6] 0.000147005
9 *213:I o_wb_data[7] 0.000488242
10 *213:I *182:I 2.59527e-05
11 *213:I *208:I 0.00133292
12 *213:I *209:I 0.000110723
13 *213:I *210:I 0
14 *213:I *211:I 0.00162025
15 *213:I *212:I 2.59527e-05
16 *213:I *216:I 0.000283864
17 *213:I *392:A3 0.000101267
18 *213:I *410:A1 0.000466116
19 *213:I *8:13 0.000876487
20 *213:I *41:11 0.000997581
21 *213:I *156:41 0.000598867
22 *457:I o_wb_data[8] 8.56844e-05
23 *457:I o_wb_data[9] 1.1256e-05
24 *6:13 o_wb_data[4] 0.000402348
25 *6:13 o_wb_data[6] 0.000159817
26 *6:13 *188:I 0.000466988
27 *6:13 *8:13 0.00032647
28 *6:13 *39:21 0.000342086
29 *6:13 *41:11 0.00071701
30 *6:13 *42:13 0.000284657
*RES
1 i_wb_addr[0] *6:13 17.505 
2 *6:13 *457:I 13.77 
3 *6:13 *213:I 32.13 
*END

*D_NET *7 0.0146313
*CONN
*P i_wb_addr[10] I
*I *215:I I *D gf180mcu_fd_sc_mcu7t5v0__antenna
*I *468:I I *D gf180mcu_fd_sc_mcu7t5v0__clkbuf_1
*CAP
1 i_wb_addr[10] 0.0019194
2 *215:I 0.000834671
3 *468:I 0
4 *7:17 0.00275407
5 *215:I o_wb_stall 0.000268032
6 *215:I *203:I 0.000294431
7 *215:I *204:I 0.00147902
8 *215:I *206:I 0.000710258
9 *215:I *209:I 0.00142643
10 *215:I *216:I 0.000110531
11 *215:I *393:A1 9.39061e-05
12 *215:I *401:A2 6.02974e-05
13 *215:I *402:A2 0.000158798
14 *215:I *478:I 0.00107604
15 *215:I *28:17 0.000221777
16 *215:I *34:13 0.000577706
17 *7:17 *401:A2 0.000416312
18 *7:17 *8:13 0.000287207
19 *7:17 *17:29 0.000180543
20 *7:17 *28:17 0.00073371
21 *7:17 *37:13 0.000253744
22 *7:17 *40:13 0.000209891
23 *7:17 *157:39 0.000564524
*RES
1 i_wb_addr[10] *7:17 24.5328 
2 *7:17 *468:I 4.5 
3 *7:17 *215:I 35.73 
*END

*D_NET *8 0.0136562
*CONN
*P i_wb_addr[11] I
*I *216:I I *D gf180mcu_fd_sc_mcu7t5v0__antenna
*I *470:I I *D gf180mcu_fd_sc_mcu7t5v0__clkbuf_1
*CAP
1 i_wb_addr[11] 0.00204946
2 *216:I 0.0012306
3 *470:I 1.24169e-05
4 *8:13 0.00329247
5 *216:I o_wb_data[22] 3.06566e-05
6 *216:I *210:I 0.000329503
7 *216:I *211:I 7.52314e-05
8 *216:I *478:I 0.000169202
9 *470:I o_wb_data[7] 9.84908e-05
10 *470:I *185:I 3.97987e-05
11 *8:13 o_wb_data[2] 7.04793e-05
12 *8:13 o_wb_data[4] 0.000128364
13 *8:13 *210:I 0.000109248
14 *8:13 *396:A2 0.000492894
15 *8:13 *421:A2 1.48164e-05
16 *8:13 *477:I 7.21232e-05
17 *8:13 *9:13 0.000289763
18 *8:13 *11:19 0.00220623
19 *8:13 *36:13 0.00014549
20 *8:13 *40:13 0.000914362
21 *8:13 *157:22 0
22 *213:I *216:I 0.000283864
23 *213:I *8:13 0.000876487
24 *215:I *216:I 0.000110531
25 *6:13 *8:13 0.00032647
26 *7:17 *8:13 0.000287207
*RES
1 i_wb_addr[11] *8:13 31.365 
2 *8:13 *470:I 13.77 
3 *8:13 *216:I 23.04 
*END

*D_NET *9 0.0115001
*CONN
*P i_wb_addr[12] I
*I *217:I I *D gf180mcu_fd_sc_mcu7t5v0__antenna
*I *471:I I *D gf180mcu_fd_sc_mcu7t5v0__clkbuf_1
*CAP
1 i_wb_addr[12] 0.00127868
2 *217:I 0.000806467
3 *471:I 0.000315928
4 *9:13 0.00240108
5 *217:I *204:I 0.000200198
6 *217:I *392:A2 0.000269245
7 *217:I *393:A3 9.2131e-05
8 *217:I *402:A3 1.56942e-05
9 *217:I *405:A1 0.000169515
10 *217:I *414:A4 3.12857e-05
11 *217:I *422:A3 0.000687429
12 *217:I *460:I 0.000725179
13 *217:I *35:9 3.14363e-05
14 *217:I *90:66 0.000102271
15 *217:I *92:6 0
16 *471:I *391:A2 0.000128345
17 *471:I *393:A1 0.000654648
18 *471:I *426:B 0.000166843
19 *471:I *34:13 0.000894147
20 *471:I *101:14 6.06287e-05
21 *471:I *119:14 0.000141535
22 *471:I *157:60 0.000441629
23 *9:13 *394:A2 1.39839e-05
24 *9:13 *404:A2 9.84908e-05
25 *9:13 *424:A2 5.96085e-05
26 *9:13 *10:17 4.91247e-05
27 *9:13 *11:19 0
28 *9:13 *92:6 3.12497e-06
29 *9:13 *104:10 2.91338e-05
30 *9:13 *119:14 0.000125317
31 *9:13 *157:60 0.000925916
32 *9:13 *160:8 1.39839e-05
33 *9:13 *162:28 0.000277366
34 *8:13 *9:13 0.000289763
*RES
1 i_wb_addr[12] *9:13 14.895 
2 *9:13 *471:I 13.68 
3 *9:13 *217:I 16.83 
*END

*D_NET *10 0.00645121
*CONN
*P i_wb_addr[13] I
*I *472:I I *D gf180mcu_fd_sc_mcu7t5v0__clkbuf_1
*I *218:I I *D gf180mcu_fd_sc_mcu7t5v0__antenna
*CAP
1 i_wb_addr[13] 0.00177228
2 *472:I 0
3 *218:I 0.000232379
4 *10:17 0.00200466
5 *218:I *182:I 0.00128262
6 *218:I *406:A3 0.000893716
7 *218:I *406:A4 0
8 *218:I *100:49 0
9 *218:I *104:32 0
10 *10:17 *424:B 0
11 *10:17 *11:19 4.91247e-05
12 *10:17 *160:23 0.000167316
13 *9:13 *10:17 4.91247e-05
*RES
1 i_wb_addr[13] *10:17 29.385 
2 *10:17 *218:I 8.46 
3 *10:17 *472:I 4.5 
*END

*D_NET *11 0.016087
*CONN
*P i_wb_addr[14] I
*I *219:I I *D gf180mcu_fd_sc_mcu7t5v0__antenna
*I *473:I I *D gf180mcu_fd_sc_mcu7t5v0__clkbuf_1
*CAP
1 i_wb_addr[14] 0.00105611
2 *219:I 0.000259183
3 *473:I 0.000277996
4 *11:19 0.00159329
5 *219:I *201:I 0
6 *219:I *392:A4 0.000141535
7 *219:I *431:D 0.000933666
8 *219:I *32:13 9.48244e-05
9 *473:I o_wb_data[10] 0.000213358
10 *473:I o_wb_data[9] 6.5436e-05
11 *473:I *387:I 2.20001e-05
12 *473:I *403:A1 0.000441421
13 *473:I *153:24 0.00041012
14 *473:I *164:28 0.000932599
15 *11:19 *207:I 0.000684091
16 *11:19 *396:A2 0.000175647
17 *11:19 *425:A1 8.51157e-05
18 *11:19 *431:D 0.000451752
19 *11:19 *12:9 0.000283974
20 *11:19 *32:13 0.000462488
21 *11:19 *36:13 0.0014086
22 *11:19 *37:13 0.00196992
23 *11:19 *168:26 0.00186853
24 *8:13 *11:19 0.00220623
25 *9:13 *11:19 0
26 *10:17 *11:19 4.91247e-05
*RES
1 i_wb_addr[14] *11:19 37.575 
2 *11:19 *473:I 17.1 
3 *11:19 *219:I 7.29 
*END

*D_NET *12 0.00643042
*CONN
*P i_wb_addr[15] I
*I *474:I I *D gf180mcu_fd_sc_mcu7t5v0__clkbuf_1
*I *220:I I *D gf180mcu_fd_sc_mcu7t5v0__antenna
*CAP
1 i_wb_addr[15] 0.000785785
2 *474:I 3.36428e-06
3 *220:I 0.000143882
4 *12:9 0.000933031
5 *220:I *104:32 2.17099e-05
6 *220:I *160:23 0.000217327
7 *474:I *427:D 9.85004e-05
8 *474:I *104:32 7.10237e-05
9 *12:9 *406:A4 3.82623e-05
10 *12:9 *409:A1 3.5947e-05
11 *12:9 *424:A1 2.58797e-06
12 *12:9 *424:B 0.00130397
13 *12:9 *427:D 0.00182623
14 *12:9 *13:33 0.000370397
15 *12:9 *104:32 0.000294431
16 *11:19 *12:9 0.000283974
*RES
1 i_wb_addr[15] *12:9 11.025 
2 *12:9 *220:I 14.85 
3 *12:9 *474:I 4.77 
*END

*D_NET *13 0.0127075
*CONN
*P i_wb_addr[16] I
*I *181:I I *D gf180mcu_fd_sc_mcu7t5v0__antenna
*I *436:I I *D gf180mcu_fd_sc_mcu7t5v0__clkbuf_1
*CAP
1 i_wb_addr[16] 0.00171094
2 *181:I 0.000525948
3 *436:I 2.6304e-05
4 *13:33 0.00226319
5 *181:I o_wb_data[12] 0.000468511
6 *181:I *201:I 1.07374e-05
7 *181:I *203:I 0.000297704
8 *181:I *207:I 0.000188609
9 *181:I *393:A4 1.75951e-05
10 *181:I *403:A1 9.99976e-05
11 *181:I *430:CLK 0.000825113
12 *181:I *156:18 0.000219821
13 *436:I *393:A2 2.71701e-05
14 *13:33 *182:I 0.000344241
15 *13:33 *186:I 0
16 *13:33 *392:A1 0.00136135
17 *13:33 *393:A1 9.84908e-05
18 *13:33 *393:A2 5.90601e-05
19 *13:33 *396:A1 0.00034213
20 *13:33 *406:A4 4.32785e-05
21 *13:33 *409:A1 0.00017882
22 *13:33 *424:A2 0.000243301
23 *13:33 *430:CLK 0.000325676
24 *13:33 *14:17 0.000467593
25 *13:33 *91:6 1.13218e-05
26 *13:33 *101:14 0.000335462
27 *13:33 *104:10 8.67249e-05
28 *13:33 *104:32 0.000433717
29 *13:33 *119:14 0.000981992
30 *13:33 *157:60 0.000342272
31 *12:9 *13:33 0.000370397
*RES
1 i_wb_addr[16] *13:33 45.225 
2 *13:33 *436:I 4.77 
3 *13:33 *181:I 19.17 
*END

*D_NET *14 0.0101006
*CONN
*P i_wb_addr[17] I
*I *437:I I *D gf180mcu_fd_sc_mcu7t5v0__clkbuf_1
*I *182:I I *D gf180mcu_fd_sc_mcu7t5v0__antenna
*CAP
1 i_wb_addr[17] 0.0008409
2 *437:I 0
3 *182:I 0.000810532
4 *14:17 0.00165143
5 *182:I *212:I 0
6 *182:I *406:A3 8.2957e-05
7 *182:I *406:A4 2.34255e-05
8 *182:I *100:49 0.000163704
9 *182:I *104:32 0
10 *182:I *162:28 0.000416987
11 *14:17 *391:A1 0.00059582
12 *14:17 *396:A1 0.000764347
13 *14:17 *396:A3 0
14 *14:17 *404:A1 1.5431e-05
15 *14:17 *406:A1 0.000246252
16 *14:17 *424:B 4.00749e-06
17 *14:17 *15:5 0.000427884
18 *14:17 *91:6 0.000764879
19 *14:17 *94:6 0.000397487
20 *14:17 *100:28 0.000738885
21 *14:17 *100:49 2.08301e-05
22 *14:17 *157:60 1.44322e-05
23 *213:I *182:I 2.59527e-05
24 *218:I *182:I 0.00128262
25 *13:33 *182:I 0.000344241
26 *13:33 *14:17 0.000467593
*RES
1 i_wb_addr[17] *14:17 20.745 
2 *14:17 *182:I 21.69 
3 *14:17 *437:I 4.5 
*END

*D_NET *15 0.00831658
*CONN
*P i_wb_addr[18] I
*I *438:I I *D gf180mcu_fd_sc_mcu7t5v0__clkbuf_1
*I *183:I I *D gf180mcu_fd_sc_mcu7t5v0__antenna
*CAP
1 i_wb_addr[18] 0.000681161
2 *438:I 0.000112396
3 *183:I 0.000608584
4 *15:5 0.00140214
5 *183:I *173:I 4.6613e-06
6 *183:I *184:I 1.39579e-05
7 *183:I *186:I 5.3933e-05
8 *183:I *406:A2 0.00136769
9 *183:I *408:A2 2.38064e-05
10 *183:I *409:A2 0.000653715
11 *183:I *410:A2 1.84476e-05
12 *183:I *416:A2 3.39729e-05
13 *183:I *433:I 5.96318e-05
14 *183:I *434:I 3.65543e-05
15 *183:I *475:I 6.34901e-05
16 *183:I *160:23 0.000132459
17 *438:I *396:A4 4.04802e-05
18 *15:5 *391:A4 1.20594e-05
19 *15:5 *396:A4 0.000890706
20 *15:5 *406:A1 0.000269292
21 *15:5 *406:A2 0.000106536
22 *15:5 *407:A1 0.000276074
23 *15:5 *434:I 1.06178e-05
24 *15:5 *16:9 0.000351816
25 *15:5 *94:6 0.000397487
26 *15:5 *97:37 0.00026702
27 *14:17 *15:5 0.000427884
*RES
1 i_wb_addr[18] *15:5 9.585 
2 *15:5 *183:I 11.88 
3 *15:5 *438:I 5.31 
*END

*D_NET *16 0.00887236
*CONN
*P i_wb_addr[19] I
*I *184:I I *D gf180mcu_fd_sc_mcu7t5v0__antenna
*I *439:I I *D gf180mcu_fd_sc_mcu7t5v0__clkbuf_1
*CAP
1 i_wb_addr[19] 0.000801831
2 *184:I 0.000861406
3 *439:I 0.000495195
4 *16:9 0.00215843
5 *184:I *407:A2 0.000232014
6 *184:I *408:A2 4.27707e-05
7 *184:I *409:A2 2.32176e-05
8 *184:I *410:A2 1.39839e-05
9 *184:I *411:A2 0.000231442
10 *184:I *433:I 0.000121633
11 *184:I *434:I 0.00099289
12 *184:I *109:8 3.22122e-05
13 *184:I *156:41 5.69527e-05
14 *439:I *396:A3 9.84908e-05
15 *439:I *409:A2 0.000106536
16 *439:I *157:60 0
17 *16:9 *391:A4 0.00054086
18 *16:9 *396:A4 3.47338e-05
19 *16:9 *407:A1 0.000137105
20 *16:9 *407:A2 0.000546844
21 *16:9 *434:I 9.84908e-05
22 *16:9 *18:7 0.000316734
23 *16:9 *19:17 3.12843e-06
24 *180:I *184:I 0.000559685
25 *183:I *184:I 1.39579e-05
26 *15:5 *16:9 0.000351816
*RES
1 i_wb_addr[19] *16:9 9.225 
2 *16:9 *439:I 16.2 
3 *16:9 *184:I 13.68 
*END

*D_NET *17 0.0152899
*CONN
*P i_wb_addr[1] I
*I *185:I I *D gf180mcu_fd_sc_mcu7t5v0__antenna
*I *440:I I *D gf180mcu_fd_sc_mcu7t5v0__buf_1
*CAP
1 i_wb_addr[1] 0.00107322
2 *185:I 0.00107016
3 *440:I 0
4 *17:29 0.00214338
5 *185:I o_wb_data[11] 8.53098e-05
6 *185:I o_wb_data[16] 0.000132134
7 *185:I o_wb_data[19] 5.70728e-05
8 *185:I o_wb_data[31] 0.000425761
9 *185:I o_wb_data[3] 0.001293
10 *185:I o_wb_data[5] 2.31e-05
11 *185:I o_wb_data[7] 0.000151286
12 *185:I *200:I 0.00155153
13 *185:I *206:I 0.00120126
14 *185:I *210:I 0.00040009
15 *185:I *211:I 0.000417717
16 *185:I *418:A1 1.56087e-05
17 *185:I *478:I 0.00100805
18 *185:I *42:13 0.000325192
19 *185:I *153:24 0.000213904
20 *185:I *156:18 5.30751e-05
21 *17:29 o_wb_ack 0.00071706
22 *17:29 o_wb_data[3] 0.000714214
23 *17:29 o_wb_data[4] 0
24 *17:29 o_wb_data[6] 0.000158661
25 *17:29 *188:I 5.35433e-06
26 *17:29 *401:A3 0.000155427
27 *17:29 *458:I 3.58314e-05
28 *17:29 *39:21 3.08912e-05
29 *17:29 *40:13 0.000271077
30 *17:29 *42:13 0.000735553
31 *17:29 *164:28 0.000604613
32 *470:I *185:I 3.97987e-05
33 *7:17 *17:29 0.000180543
*RES
1 i_wb_addr[1] *17:29 21.825 
2 *17:29 *440:I 4.5 
3 *17:29 *185:I 30.51 
*END

*D_NET *18 0.0128163
*CONN
*P i_wb_addr[20] I
*I *441:I I *D gf180mcu_fd_sc_mcu7t5v0__clkbuf_1
*I *186:I I *D gf180mcu_fd_sc_mcu7t5v0__antenna
*CAP
1 i_wb_addr[20] 0.000294641
2 *441:I 0.000974276
3 *186:I 0.0029164
4 *18:7 0.00418531
5 *186:I *396:A2 0.000462014
6 *186:I *90:39 0.000150954
7 *186:I *90:50 0
8 *186:I *104:32 0
9 *186:I *157:88 0.000500371
10 *186:I *163:22 7.4978e-05
11 *441:I *188:I 6.84825e-06
12 *441:I *395:A2 0.00191611
13 *441:I *396:A2 0.000580082
14 *441:I *443:I 0
15 *441:I *22:15 4.04746e-05
16 *441:I *29:19 3.24315e-05
17 *441:I *30:19 2.31089e-05
18 *18:7 *19:17 0.000287624
19 *183:I *186:I 5.3933e-05
20 *5:19 *441:I 0
21 *13:33 *186:I 0
22 *16:9 *18:7 0.000316734
*RES
1 i_wb_addr[20] *18:7 8.505 
2 *18:7 *186:I 32.22 
3 *18:7 *441:I 17.28 
*END

*D_NET *19 0.0114104
*CONN
*P i_wb_addr[21] I
*I *187:I I *D gf180mcu_fd_sc_mcu7t5v0__antenna
*I *442:I I *D gf180mcu_fd_sc_mcu7t5v0__clkbuf_1
*CAP
1 i_wb_addr[21] 0.00126874
2 *187:I 0.000252032
3 *442:I 0
4 *19:17 0.00152078
5 *187:I *194:I 0.000285897
6 *187:I *417:A1 0.00015703
7 *187:I *420:B 2.79072e-05
8 *187:I *163:20 5.99183e-05
9 *19:17 *190:I 0.000126426
10 *19:17 *193:I 0.00331712
11 *19:17 *214:I 0.000134574
12 *19:17 *395:A2 3.75362e-05
13 *19:17 *396:A2 0.000155422
14 *19:17 *406:A1 0.00259903
15 *19:17 *407:A1 1.56942e-05
16 *19:17 *407:A2 6.26074e-05
17 *19:17 *417:A1 0.000271094
18 *19:17 *420:B 3.56809e-05
19 *19:17 *475:I 0.000216299
20 *19:17 *20:11 0.000272613
21 *19:17 *90:33 0.000291437
22 *19:17 *90:134 1.18477e-05
23 *16:9 *19:17 3.12843e-06
24 *18:7 *19:17 0.000287624
*RES
1 i_wb_addr[21] *19:17 27.405 
2 *19:17 *442:I 4.5 
3 *19:17 *187:I 15.84 
*END

*D_NET *20 0.0228703
*CONN
*P i_wb_addr[22] I
*I *443:I I *D gf180mcu_fd_sc_mcu7t5v0__clkbuf_1
*I *188:I I *D gf180mcu_fd_sc_mcu7t5v0__antenna
*CAP
1 i_wb_addr[22] 0.000371289
2 *443:I 0.00160832
3 *188:I 0.00157213
4 *20:11 0.00355174
5 *188:I o_wb_data[1] 0.000205859
6 *188:I o_wb_data[3] 5.09167e-05
7 *188:I o_wb_data[5] 0.000288156
8 *188:I o_wb_data[6] 6.96994e-05
9 *188:I *193:I 2.46627e-05
10 *188:I *394:A2 0.000729318
11 *188:I *395:A2 3.55431e-05
12 *188:I *396:A2 0.000237175
13 *188:I *407:A1 0.000459
14 *188:I *409:A1 0.000942113
15 *188:I *414:A1 0.000852479
16 *188:I *424:A1 0
17 *188:I *425:B 0.000577992
18 *188:I *458:I 0
19 *188:I *477:I 0.00229279
20 *188:I *478:I 0.000103658
21 *188:I *40:13 8.67522e-05
22 *188:I *41:11 0.000162554
23 *188:I *42:13 1.84476e-05
24 *188:I *97:8 0
25 *188:I *104:10 0.000552428
26 *188:I *162:28 4.83237e-05
27 *188:I *168:26 0.000143851
28 *443:I *193:I 0.000408087
29 *443:I *395:A2 7.39099e-05
30 *443:I *400:A2 6.7943e-05
31 *443:I *445:I 0
32 *443:I *448:I 0.000582892
33 *443:I *30:19 0.00260984
34 *20:11 *395:A2 0.000161479
35 *20:11 *396:A2 2.36914e-05
36 *20:11 *21:13 0.000585986
37 *20:11 *100:28 1.0415e-05
38 *441:I *188:I 6.84825e-06
39 *441:I *443:I 0
40 *3:13 *443:I 0.00260904
41 *6:13 *188:I 0.000466988
42 *17:29 *188:I 5.35433e-06
43 *19:17 *20:11 0.000272613
*RES
1 i_wb_addr[22] *20:11 9.765 
2 *20:11 *188:I 29.16 
3 *20:11 *443:I 35.64 
*END

*D_NET *21 0.00990027
*CONN
*P i_wb_addr[23] I
*I *189:I I *D gf180mcu_fd_sc_mcu7t5v0__antenna
*I *444:I I *D gf180mcu_fd_sc_mcu7t5v0__clkbuf_1
*CAP
1 i_wb_addr[23] 0.0012019
2 *189:I 0.000243392
3 *444:I 0
4 *21:13 0.0014453
5 *189:I *192:I 0.00035741
6 *189:I *194:I 0.00023711
7 *189:I *395:A1 0.000456581
8 *189:I *417:A1 4.64138e-05
9 *189:I *23:17 0.000143699
10 *189:I *163:20 3.1949e-05
11 *21:13 *395:A1 0.00242928
12 *21:13 *396:A1 8.14688e-06
13 *21:13 *400:A1 2.08301e-05
14 *21:13 *22:15 0.000306085
15 *21:13 *23:17 0.00231711
16 *21:13 *100:28 6.90806e-05
17 *20:11 *21:13 0.000585986
*RES
1 i_wb_addr[23] *21:13 16.245 
2 *21:13 *444:I 4.5 
3 *21:13 *189:I 16.74 
*END

*D_NET *22 0.0124219
*CONN
*P i_wb_addr[24] I
*I *445:I I *D gf180mcu_fd_sc_mcu7t5v0__clkbuf_1
*I *190:I I *D gf180mcu_fd_sc_mcu7t5v0__antenna
*CAP
1 i_wb_addr[24] 0.000963499
2 *445:I 0.000873944
3 *190:I 0.000909846
4 *22:15 0.00274729
5 *190:I *195:I 9.08505e-05
6 *190:I *395:A1 0
7 *190:I *395:A2 3.01487e-05
8 *190:I *396:A1 0.000309993
9 *190:I *406:A1 0.00241018
10 *190:I *417:A1 0
11 *190:I *419:A1 0.00131451
12 *190:I *419:A2 3.41065e-05
13 *190:I *420:A2 0.000873617
14 *190:I *420:B 2.18528e-05
15 *190:I *429:D 3.38463e-05
16 *190:I *475:I 0.000795826
17 *190:I *97:8 1.56305e-05
18 *190:I *100:28 8.68398e-06
19 *190:I *163:20 2.68638e-05
20 *445:I *397:A2 7.36829e-05
21 *445:I *400:A4 9.93186e-05
22 *445:I *415:B 0
23 *445:I *448:I 0
24 *445:I *29:19 0
25 *445:I *97:8 1.4333e-05
26 *22:15 *400:A1 4.6613e-06
27 *22:15 *23:17 0.000296195
28 *441:I *22:15 4.04746e-05
29 *443:I *445:I 0
30 *19:17 *190:I 0.000126426
31 *21:13 *22:15 0.000306085
*RES
1 i_wb_addr[24] *22:15 21.105 
2 *22:15 *190:I 30.51 
3 *22:15 *445:I 14.49 
*END

*D_NET *23 0.00900546
*CONN
*P i_wb_addr[25] I
*I *447:I I *D gf180mcu_fd_sc_mcu7t5v0__clkbuf_1
*I *192:I I *D gf180mcu_fd_sc_mcu7t5v0__antenna
*CAP
1 i_wb_addr[25] 0.00140238
2 *447:I 0
3 *192:I 0.000194473
4 *23:17 0.00159685
5 *192:I *399:A1 1.84476e-05
6 *192:I *400:A2 2.97368e-05
7 *192:I *417:A1 1.15771e-05
8 *23:17 *395:A3 0.00135364
9 *23:17 *399:A1 0.000290105
10 *23:17 *400:A1 0.00022629
11 *23:17 *400:A2 0.000207848
12 *23:17 *24:7 0.000559694
13 *189:I *192:I 0.00035741
14 *189:I *23:17 0.000143699
15 *21:13 *23:17 0.00231711
16 *22:15 *23:17 0.000296195
*RES
1 i_wb_addr[25] *23:17 17.505 
2 *23:17 *192:I 6.39 
3 *23:17 *447:I 4.5 
*END

*D_NET *24 0.0130091
*CONN
*P i_wb_addr[26] I
*I *448:I I *D gf180mcu_fd_sc_mcu7t5v0__clkbuf_1
*I *193:I I *D gf180mcu_fd_sc_mcu7t5v0__antenna
*CAP
1 i_wb_addr[26] 0.000582173
2 *448:I 0.000410841
3 *193:I 0.00097489
4 *24:7 0.0019679
5 *193:I *173:I 0
6 *193:I *176:I 0.000141012
7 *193:I *407:A2 0.00127693
8 *193:I *475:I 1.77835e-05
9 *193:I *90:134 6.34901e-05
10 *193:I *97:8 0.00137079
11 *193:I *106:27 0.000351042
12 *193:I *109:8 2.15229e-05
13 *193:I *157:60 0.000318962
14 *448:I *397:A2 5.79557e-05
15 *448:I *400:A4 2.59125e-05
16 *448:I *97:8 0.000101624
17 *24:7 *400:A2 0.000195949
18 *24:7 *400:A4 5.78854e-06
19 *24:7 *25:13 3.40094e-05
20 *24:7 *26:19 0
21 *180:I *193:I 0.000198085
22 *188:I *193:I 2.46627e-05
23 *443:I *193:I 0.000408087
24 *443:I *448:I 0.000582892
25 *445:I *448:I 0
26 *19:17 *193:I 0.00331712
27 *23:17 *24:7 0.000559694
*RES
1 i_wb_addr[26] *24:7 10.305 
2 *24:7 *193:I 24.75 
3 *24:7 *448:I 12.87 
*END
