*SPEF "ieee 1481-1999"
*DESIGN "wb_buttons_leds"
*DATE "11:11:11 Fri 11 11, 1111"
*VENDOR "OpenRCX"
*PROGRAM "Parallel Extraction"
*VERSION "1.0"
*DESIGN_FLOW "NAME_SCOPE LOCAL" "PIN_CAP NONE"
*DIVIDER /
*DELIMITER :
*BUS_DELIMITER []
*T_UNIT 1 NS
*C_UNIT 1 PF
*R_UNIT 1 OHM
*L_UNIT 1 HENRY

*NAME_MAP
*1 buttons[0]
*2 buttons[1]
*3 net85
*4 net49
*5 clk
*6 clk2
*7 i_wb_addr[0]
*8 i_wb_addr[10]
*9 i_wb_addr[11]
*10 i_wb_addr[12]
*11 i_wb_addr[13]
*12 i_wb_addr[14]
*13 i_wb_addr[15]
*14 i_wb_addr[16]
*15 i_wb_addr[17]
*16 i_wb_addr[18]
*17 i_wb_addr[19]
*18 i_wb_addr[1]
*19 i_wb_addr[20]
*20 i_wb_addr[21]
*21 i_wb_addr[22]
*22 i_wb_addr[23]
*23 i_wb_addr[24]
*24 i_wb_addr[25]
*25 i_wb_addr[26]
*26 i_wb_addr[27]
*27 i_wb_addr[28]
*28 i_wb_addr[29]
*29 i_wb_addr[2]
*30 i_wb_addr[30]
*31 i_wb_addr[31]
*32 i_wb_addr[3]
*33 i_wb_addr[4]
*34 i_wb_addr[5]
*35 i_wb_addr[6]
*36 i_wb_addr[7]
*37 i_wb_addr[8]
*38 i_wb_addr[9]
*39 i_wb_cyc
*40 i_wb_data[0]
*41 i_wb_data[1]
*42 i_wb_stb
*43 i_wb_we
*44 net50
*45 net51
*46 leds[0]
*47 leds[1]
*48 o_wb_ack
*49 o_wb_data[0]
*50 net60
*51 net61
*52 net62
*53 net63
*54 net64
*55 net65
*56 net66
*57 net67
*58 net68
*59 net69
*60 o_wb_data[1]
*61 net70
*62 net71
*63 net72
*64 net73
*65 net74
*66 net75
*67 net76
*68 net77
*69 net78
*70 net79
*71 net52
*72 net80
*73 net81
*74 net53
*75 net54
*76 net55
*77 net56
*78 net57
*79 net58
*80 net59
*81 net82
*82 reset
*85 net83
*86 net84
*87 xtal_clk_enb[0]
*88 xtal_clk_enb[1]
*89 _000_
*90 _001_
*91 _002_
*92 _003_
*93 _004_
*94 _005_
*95 _006_
*96 _007_
*97 _008_
*98 _009_
*99 _010_
*100 _011_
*101 _012_
*102 _013_
*103 _014_
*104 _015_
*105 _016_
*106 _017_
*107 _018_
*108 _019_
*109 _020_
*110 _021_
*111 _022_
*112 _023_
*113 _024_
*114 _025_
*115 _026_
*116 _027_
*117 _028_
*118 _029_
*119 _030_
*120 _031_
*121 _032_
*122 _033_
*123 _034_
*124 _035_
*125 _036_
*126 _037_
*127 _038_
*128 _039_
*129 _040_
*130 _041_
*131 clknet_0_clk
*132 clknet_1_0__leaf_clk
*133 clknet_1_1__leaf_clk
*134 net1
*135 net10
*136 net11
*137 net12
*138 net13
*139 net14
*140 net15
*141 net16
*142 net17
*143 net18
*144 net19
*145 net2
*146 net20
*147 net21
*148 net22
*149 net23
*150 net24
*151 net25
*152 net26
*153 net27
*154 net28
*155 net29
*156 net3
*157 net30
*158 net31
*159 net32
*160 net33
*161 net34
*162 net35
*163 net36
*164 net37
*165 net38
*166 net39
*167 net4
*168 net40
*169 net41
*170 net42
*171 net43
*172 net44
*173 net45
*174 net46
*175 net47
*176 net48
*177 net5
*178 net6
*179 net7
*180 net8
*181 net9
*182 ANTENNA__065__A2
*183 ANTENNA__069__A1
*184 ANTENNA__072__B
*185 ANTENNA__075__A1
*186 ANTENNA__076__B
*187 ANTENNA__080__B
*188 ANTENNA__082__A1
*189 ANTENNA__082__B
*190 ANTENNA__089__D
*191 ANTENNA__090__D
*192 ANTENNA_clkbuf_0_clk_I
*193 ANTENNA_input10_I
*194 ANTENNA_input11_I
*195 ANTENNA_input12_I
*196 ANTENNA_input13_I
*197 ANTENNA_input14_I
*198 ANTENNA_input15_I
*199 ANTENNA_input16_I
*200 ANTENNA_input17_I
*201 ANTENNA_input18_I
*202 ANTENNA_input19_I
*203 ANTENNA_input1_I
*204 ANTENNA_input20_I
*205 ANTENNA_input21_I
*206 ANTENNA_input22_I
*207 ANTENNA_input23_I
*208 ANTENNA_input24_I
*209 ANTENNA_input25_I
*210 ANTENNA_input26_I
*211 ANTENNA_input27_I
*212 ANTENNA_input28_I
*213 ANTENNA_input29_I
*214 ANTENNA_input2_I
*215 ANTENNA_input30_I
*216 ANTENNA_input31_I
*217 ANTENNA_input32_I
*218 ANTENNA_input33_I
*219 ANTENNA_input34_I
*220 ANTENNA_input35_I
*221 ANTENNA_input36_I
*222 ANTENNA_input37_I
*223 ANTENNA_input38_I
*224 ANTENNA_input39_I
*225 ANTENNA_input3_I
*226 ANTENNA_input40_I
*227 ANTENNA_input41_I
*228 ANTENNA_input4_I
*229 ANTENNA_input5_I
*230 ANTENNA_input6_I
*231 ANTENNA_input7_I
*232 ANTENNA_input8_I
*233 ANTENNA_input9_I
*234 ANTENNA_output43_I
*235 ANTENNA_output48_I
*236 FILLER_0_0_135
*237 FILLER_0_0_184
*238 FILLER_0_0_2
*239 FILLER_0_0_53
*240 FILLER_0_10_10
*241 FILLER_0_10_103
*242 FILLER_0_10_107
*243 FILLER_0_10_14
*244 FILLER_0_10_16
*245 FILLER_0_10_171
*246 FILLER_0_10_177
*247 FILLER_0_10_185
*248 FILLER_0_10_187
*249 FILLER_0_10_19
*250 FILLER_0_10_23
*251 FILLER_0_10_29
*252 FILLER_0_10_33
*253 FILLER_0_10_37
*254 FILLER_0_10_69
*255 FILLER_0_10_79
*256 FILLER_0_10_95
*257 FILLER_0_11_10
*258 FILLER_0_11_136
*259 FILLER_0_11_14
*260 FILLER_0_11_142
*261 FILLER_0_11_174
*262 FILLER_0_11_18
*263 FILLER_0_11_182
*264 FILLER_0_11_186
*265 FILLER_0_11_20
*266 FILLER_0_11_23
*267 FILLER_0_11_27
*268 FILLER_0_11_59
*269 FILLER_0_11_67
*270 FILLER_0_11_69
*271 FILLER_0_11_72
*272 FILLER_0_12_10
*273 FILLER_0_12_101
*274 FILLER_0_12_107
*275 FILLER_0_12_171
*276 FILLER_0_12_177
*277 FILLER_0_12_179
*278 FILLER_0_12_26
*279 FILLER_0_12_34
*280 FILLER_0_12_37
*281 FILLER_0_13_136
*282 FILLER_0_13_142
*283 FILLER_0_13_174
*284 FILLER_0_13_182
*285 FILLER_0_13_186
*286 FILLER_0_13_6
*287 FILLER_0_13_72
*288 FILLER_0_14_10
*289 FILLER_0_14_101
*290 FILLER_0_14_107
*291 FILLER_0_14_171
*292 FILLER_0_14_177
*293 FILLER_0_14_185
*294 FILLER_0_14_187
*295 FILLER_0_14_26
*296 FILLER_0_14_34
*297 FILLER_0_14_37
*298 FILLER_0_15_136
*299 FILLER_0_15_142
*300 FILLER_0_15_174
*301 FILLER_0_15_182
*302 FILLER_0_15_22
*303 FILLER_0_15_54
*304 FILLER_0_15_72
*305 FILLER_0_16_101
*306 FILLER_0_16_104
*307 FILLER_0_16_106
*308 FILLER_0_16_111
*309 FILLER_0_16_127
*310 FILLER_0_16_13
*311 FILLER_0_16_135
*312 FILLER_0_16_148
*313 FILLER_0_16_156
*314 FILLER_0_16_158
*315 FILLER_0_16_163
*316 FILLER_0_16_167
*317 FILLER_0_16_172
*318 FILLER_0_16_184
*319 FILLER_0_16_2
*320 FILLER_0_16_25
*321 FILLER_0_16_33
*322 FILLER_0_16_36
*323 FILLER_0_16_52
*324 FILLER_0_16_70
*325 FILLER_0_16_74
*326 FILLER_0_16_78
*327 FILLER_0_16_80
*328 FILLER_0_16_85
*329 FILLER_0_1_185
*330 FILLER_0_1_187
*331 FILLER_0_1_2
*332 FILLER_0_2_115
*333 FILLER_0_2_12
*334 FILLER_0_2_14
*335 FILLER_0_2_172
*336 FILLER_0_2_174
*337 FILLER_0_2_187
*338 FILLER_0_2_37
*339 FILLER_0_3_185
*340 FILLER_0_3_187
*341 FILLER_0_3_2
*342 FILLER_0_3_82
*343 FILLER_0_4_104
*344 FILLER_0_4_183
*345 FILLER_0_4_187
*346 FILLER_0_5_138
*347 FILLER_0_5_156
*348 FILLER_0_5_160
*349 FILLER_0_5_164
*350 FILLER_0_5_26
*351 FILLER_0_5_32
*352 FILLER_0_6_103
*353 FILLER_0_6_136
*354 FILLER_0_6_140
*355 FILLER_0_6_144
*356 FILLER_0_6_150
*357 FILLER_0_6_154
*358 FILLER_0_6_156
*359 FILLER_0_6_159
*360 FILLER_0_6_163
*361 FILLER_0_6_167
*362 FILLER_0_6_171
*363 FILLER_0_6_177
*364 FILLER_0_6_2
*365 FILLER_0_6_9
*366 FILLER_0_6_94
*367 FILLER_0_6_96
*368 FILLER_0_7_117
*369 FILLER_0_7_121
*370 FILLER_0_7_125
*371 FILLER_0_7_133
*372 FILLER_0_7_137
*373 FILLER_0_7_139
*374 FILLER_0_7_142
*375 FILLER_0_7_158
*376 FILLER_0_7_168
*377 FILLER_0_7_172
*378 FILLER_0_7_174
*379 FILLER_0_7_177
*380 FILLER_0_7_181
*381 FILLER_0_7_185
*382 FILLER_0_7_2
*383 FILLER_0_7_54
*384 FILLER_0_8_103
*385 FILLER_0_8_107
*386 FILLER_0_8_171
*387 FILLER_0_8_177
*388 FILLER_0_8_18
*389 FILLER_0_8_185
*390 FILLER_0_8_28
*391 FILLER_0_8_34
*392 FILLER_0_8_37
*393 FILLER_0_8_41
*394 FILLER_0_8_45
*395 FILLER_0_8_51
*396 FILLER_0_8_53
*397 FILLER_0_8_56
*398 FILLER_0_8_60
*399 FILLER_0_8_70
*400 FILLER_0_8_72
*401 FILLER_0_8_79
*402 FILLER_0_8_99
*403 FILLER_0_9_129
*404 FILLER_0_9_137
*405 FILLER_0_9_139
*406 FILLER_0_9_142
*407 FILLER_0_9_174
*408 FILLER_0_9_18
*409 FILLER_0_9_182
*410 FILLER_0_9_186
*411 FILLER_0_9_22
*412 FILLER_0_9_25
*413 FILLER_0_9_31
*414 FILLER_0_9_35
*415 FILLER_0_9_39
*416 FILLER_0_9_43
*417 FILLER_0_9_47
*418 FILLER_0_9_49
*419 FILLER_0_9_52
*420 FILLER_0_9_72
*421 FILLER_0_9_74
*422 FILLER_0_9_81
*423 FILLER_0_9_85
*424 FILLER_0_9_89
*425 FILLER_0_9_93
*426 FILLER_0_9_97
*427 PHY_EDGE_ROW_0_Left_17
*428 PHY_EDGE_ROW_0_Right_0
*429 PHY_EDGE_ROW_10_Left_27
*430 PHY_EDGE_ROW_10_Right_10
*431 PHY_EDGE_ROW_11_Left_28
*432 PHY_EDGE_ROW_11_Right_11
*433 PHY_EDGE_ROW_12_Left_29
*434 PHY_EDGE_ROW_12_Right_12
*435 PHY_EDGE_ROW_13_Left_30
*436 PHY_EDGE_ROW_13_Right_13
*437 PHY_EDGE_ROW_14_Left_31
*438 PHY_EDGE_ROW_14_Right_14
*439 PHY_EDGE_ROW_15_Left_32
*440 PHY_EDGE_ROW_15_Right_15
*441 PHY_EDGE_ROW_16_Left_33
*442 PHY_EDGE_ROW_16_Right_16
*443 PHY_EDGE_ROW_1_Left_18
*444 PHY_EDGE_ROW_1_Right_1
*445 PHY_EDGE_ROW_2_Left_19
*446 PHY_EDGE_ROW_2_Right_2
*447 PHY_EDGE_ROW_3_Left_20
*448 PHY_EDGE_ROW_3_Right_3
*449 PHY_EDGE_ROW_4_Left_21
*450 PHY_EDGE_ROW_4_Right_4
*451 PHY_EDGE_ROW_5_Left_22
*452 PHY_EDGE_ROW_5_Right_5
*453 PHY_EDGE_ROW_6_Left_23
*454 PHY_EDGE_ROW_6_Right_6
*455 PHY_EDGE_ROW_7_Left_24
*456 PHY_EDGE_ROW_7_Right_7
*457 PHY_EDGE_ROW_8_Left_25
*458 PHY_EDGE_ROW_8_Right_8
*459 PHY_EDGE_ROW_9_Left_26
*460 PHY_EDGE_ROW_9_Right_9
*461 TAP_TAPCELL_ROW_0_34
*462 TAP_TAPCELL_ROW_0_35
*463 TAP_TAPCELL_ROW_0_36
*464 TAP_TAPCELL_ROW_0_37
*465 TAP_TAPCELL_ROW_0_38
*466 TAP_TAPCELL_ROW_10_61
*467 TAP_TAPCELL_ROW_10_62
*468 TAP_TAPCELL_ROW_10_63
*469 TAP_TAPCELL_ROW_11_64
*470 TAP_TAPCELL_ROW_11_65
*471 TAP_TAPCELL_ROW_12_66
*472 TAP_TAPCELL_ROW_12_67
*473 TAP_TAPCELL_ROW_12_68
*474 TAP_TAPCELL_ROW_13_69
*475 TAP_TAPCELL_ROW_13_70
*476 TAP_TAPCELL_ROW_14_71
*477 TAP_TAPCELL_ROW_14_72
*478 TAP_TAPCELL_ROW_14_73
*479 TAP_TAPCELL_ROW_15_74
*480 TAP_TAPCELL_ROW_15_75
*481 TAP_TAPCELL_ROW_16_76
*482 TAP_TAPCELL_ROW_16_77
*483 TAP_TAPCELL_ROW_16_78
*484 TAP_TAPCELL_ROW_16_79
*485 TAP_TAPCELL_ROW_16_80
*486 TAP_TAPCELL_ROW_1_39
*487 TAP_TAPCELL_ROW_1_40
*488 TAP_TAPCELL_ROW_2_41
*489 TAP_TAPCELL_ROW_2_42
*490 TAP_TAPCELL_ROW_2_43
*491 TAP_TAPCELL_ROW_3_44
*492 TAP_TAPCELL_ROW_3_45
*493 TAP_TAPCELL_ROW_4_46
*494 TAP_TAPCELL_ROW_4_47
*495 TAP_TAPCELL_ROW_4_48
*496 TAP_TAPCELL_ROW_5_49
*497 TAP_TAPCELL_ROW_5_50
*498 TAP_TAPCELL_ROW_6_51
*499 TAP_TAPCELL_ROW_6_52
*500 TAP_TAPCELL_ROW_6_53
*501 TAP_TAPCELL_ROW_7_54
*502 TAP_TAPCELL_ROW_7_55
*503 TAP_TAPCELL_ROW_8_56
*504 TAP_TAPCELL_ROW_8_57
*505 TAP_TAPCELL_ROW_8_58
*506 TAP_TAPCELL_ROW_9_59
*507 TAP_TAPCELL_ROW_9_60
*508 _042_
*509 _043_
*510 _044_
*511 _045_
*512 _046_
*513 _047_
*514 _048_
*515 _049_
*516 _050_
*517 _051_
*518 _052_
*519 _053_
*520 _054_
*521 _055_
*522 _056_
*523 _057_
*524 _058_
*525 _059_
*526 _060_
*527 _061_
*528 _062_
*529 _063_
*530 _064_
*531 _065_
*532 _066_
*533 _067_
*534 _068_
*535 _069_
*536 _070_
*537 _071_
*538 _072_
*539 _073_
*540 _074_
*541 _075_
*542 _076_
*543 _077_
*544 _078_
*545 _079_
*546 _080_
*547 _081_
*548 _082_
*549 _083_
*550 _084_
*551 _085_
*552 _086_
*553 _087_
*554 _088_
*555 _089_
*556 _090_
*557 clkbuf_0_clk
*558 clkbuf_1_0__f_clk
*559 clkbuf_1_1__f_clk
*560 input1
*561 input10
*562 input11
*563 input12
*564 input13
*565 input14
*566 input15
*567 input16
*568 input17
*569 input18
*570 input19
*571 input2
*572 input20
*573 input21
*574 input22
*575 input23
*576 input24
*577 input25
*578 input26
*579 input27
*580 input28
*581 input29
*582 input3
*583 input30
*584 input31
*585 input32
*586 input33
*587 input34
*588 input35
*589 input36
*590 input37
*591 input38
*592 input39
*593 input4
*594 input40
*595 input41
*596 input5
*597 input6
*598 input7
*599 input8
*600 input9
*601 output42
*602 output43
*603 output44
*604 output45
*605 output46
*606 output47
*607 output48
*608 wb_buttons_leds_49
*609 wb_buttons_leds_50
*610 wb_buttons_leds_51
*611 wb_buttons_leds_52
*612 wb_buttons_leds_53
*613 wb_buttons_leds_54
*614 wb_buttons_leds_55
*615 wb_buttons_leds_56
*616 wb_buttons_leds_57
*617 wb_buttons_leds_58
*618 wb_buttons_leds_59
*619 wb_buttons_leds_60
*620 wb_buttons_leds_61
*621 wb_buttons_leds_62
*622 wb_buttons_leds_63
*623 wb_buttons_leds_64
*624 wb_buttons_leds_65
*625 wb_buttons_leds_66
*626 wb_buttons_leds_67
*627 wb_buttons_leds_68
*628 wb_buttons_leds_69
*629 wb_buttons_leds_70
*630 wb_buttons_leds_71
*631 wb_buttons_leds_72
*632 wb_buttons_leds_73
*633 wb_buttons_leds_74
*634 wb_buttons_leds_75
*635 wb_buttons_leds_76
*636 wb_buttons_leds_77
*637 wb_buttons_leds_78
*638 wb_buttons_leds_79
*639 wb_buttons_leds_80
*640 wb_buttons_leds_81
*641 wb_buttons_leds_82
*642 wb_buttons_leds_83
*643 wb_buttons_leds_84
*644 wb_buttons_leds_85

*PORTS
buttons[0] I
buttons[1] I
buttons_enb[0] O
buttons_enb[1] O
clk I
clk2 I
i_wb_addr[0] I
i_wb_addr[10] I
i_wb_addr[11] I
i_wb_addr[12] I
i_wb_addr[13] I
i_wb_addr[14] I
i_wb_addr[15] I
i_wb_addr[16] I
i_wb_addr[17] I
i_wb_addr[18] I
i_wb_addr[19] I
i_wb_addr[1] I
i_wb_addr[20] I
i_wb_addr[21] I
i_wb_addr[22] I
i_wb_addr[23] I
i_wb_addr[24] I
i_wb_addr[25] I
i_wb_addr[26] I
i_wb_addr[27] I
i_wb_addr[28] I
i_wb_addr[29] I
i_wb_addr[2] I
i_wb_addr[30] I
i_wb_addr[31] I
i_wb_addr[3] I
i_wb_addr[4] I
i_wb_addr[5] I
i_wb_addr[6] I
i_wb_addr[7] I
i_wb_addr[8] I
i_wb_addr[9] I
i_wb_cyc I
i_wb_data[0] I
i_wb_data[1] I
i_wb_stb I
i_wb_we I
led_enb[0] O
led_enb[1] O
leds[0] O
leds[1] O
o_wb_ack O
o_wb_data[0] O
o_wb_data[10] O
o_wb_data[11] O
o_wb_data[12] O
o_wb_data[13] O
o_wb_data[14] O
o_wb_data[15] O
o_wb_data[16] O
o_wb_data[17] O
o_wb_data[18] O
o_wb_data[19] O
o_wb_data[1] O
o_wb_data[20] O
o_wb_data[21] O
o_wb_data[22] O
o_wb_data[23] O
o_wb_data[24] O
o_wb_data[25] O
o_wb_data[26] O
o_wb_data[27] O
o_wb_data[28] O
o_wb_data[29] O
o_wb_data[2] O
o_wb_data[30] O
o_wb_data[31] O
o_wb_data[3] O
o_wb_data[4] O
o_wb_data[5] O
o_wb_data[6] O
o_wb_data[7] O
o_wb_data[8] O
o_wb_data[9] O
o_wb_stall O
reset I
xtal_clk[0] O
xtal_clk[1] O
xtal_clk_enb[0] O
xtal_clk_enb[1] O

*D_NET *1 0.00493006
*CONN
*P buttons[0] I
*I *560:I I *D gf180mcu_fd_sc_mcu7t5v0__clkbuf_1
*I *203:I I *D gf180mcu_fd_sc_mcu7t5v0__antenna
*CAP
1 buttons[0] 0.00126453
2 *560:I 0
3 *203:I 0.00033129
4 *1:13 0.00159582
5 *203:I buttons_enb[1] 0.00015815
6 *203:I *206:I 0.000148864
7 *203:I *511:I 0.000122244
8 *203:I *25:31 9.27006e-05
9 *1:13 buttons_enb[1] 4.3485e-05
10 *1:13 *190:I 0.000591484
11 *1:13 *511:I 0.000448395
12 *1:13 *6:13 8.33624e-05
13 *1:13 *89:18 8.1598e-06
14 *1:13 *98:20 4.1572e-05
*RES
1 buttons[0] *1:13 15.888 
2 *1:13 *203:I 8.14 
3 *1:13 *560:I 4.5 
*END

*D_NET *2 0.00140277
*CONN
*P buttons[1] I
*I *571:I I *D gf180mcu_fd_sc_mcu7t5v0__clkbuf_1
*I *214:I I *D gf180mcu_fd_sc_mcu7t5v0__antenna
*CAP
1 buttons[1] 0.000311406
2 *571:I 0.000129364
3 *214:I 0.00022772
4 *2:5 0.00066849
5 *214:I *512:I 6.57867e-05
*RES
1 buttons[1] *2:5 1.924 
2 *2:5 *214:I 10.872 
3 *2:5 *571:I 9.936 
*END

*D_NET *3 0.00173157
*CONN
*P buttons_enb[0] O
*I *644:Z O *D gf180mcu_fd_sc_mcu7t5v0__tieh
*CAP
1 buttons_enb[0] 0.000712704
2 *644:Z 0.000712704
3 buttons_enb[0] leds[1] 0.000306159
*RES
1 *644:Z buttons_enb[0] 15.188 
*END

*D_NET *4 0.00107259
*CONN
*P buttons_enb[1] O
*I *608:ZN O *D gf180mcu_fd_sc_mcu7t5v0__tiel
*CAP
1 buttons_enb[1] 0.00043548
2 *608:ZN 0.00043548
3 *203:I buttons_enb[1] 0.00015815
4 *1:13 buttons_enb[1] 4.3485e-05
*RES
1 *608:ZN buttons_enb[1] 12.276 
*END

*D_NET *5 0.0109272
*CONN
*P clk I
*I *192:I I *D gf180mcu_fd_sc_mcu7t5v0__antenna
*I *557:I I *D gf180mcu_fd_sc_mcu7t5v0__clkbuf_16
*CAP
1 clk 0.00110634
2 *192:I 0.00077115
3 *557:I 0.000484681
4 *5:13 0.00236218
5 *192:I *200:I 0.000299835
6 *192:I *523:A2 0.00116715
7 *192:I *547:A2 0.000223027
8 *192:I *547:B 2.2282e-05
9 *192:I *601:I 0
10 *192:I *25:31 2.10569e-05
11 *192:I *26:17 0
12 *192:I *27:17 0
13 *557:I *518:A1 0.000112835
14 *557:I *518:A2 0.000449202
15 *557:I *19:13 2.94337e-05
16 *557:I *20:17 8.12169e-05
17 *557:I *23:19 3.71173e-05
18 *557:I *165:20 0.000116466
19 *5:13 *518:A2 0.000120634
20 *5:13 *518:A4 0.000682856
21 *5:13 *522:A3 0.000468609
22 *5:13 *523:A1 3.40995e-07
23 *5:13 *523:A3 4.23881e-05
24 *5:13 *523:A4 0.000112835
25 *5:13 *569:I 3.58826e-05
26 *5:13 *6:13 0.000318895
27 *5:13 *19:13 8.4059e-05
28 *5:13 *25:31 0.000498827
29 *5:13 *28:17 0.000938798
30 *5:13 *31:13 0.000339098
31 *5:13 *82:13 0
32 *5:13 *89:18 0
*RES
1 clk *5:13 17.552 
2 *5:13 *557:I 12.952 
3 *5:13 *192:I 15.76 
*END

*D_NET *6 0.00869428
*CONN
*P clk2 I
*I *225:I I *D gf180mcu_fd_sc_mcu7t5v0__antenna
*I *582:I I *D gf180mcu_fd_sc_mcu7t5v0__clkbuf_1
*CAP
1 clk2 0.00130174
2 *225:I 0.000364813
3 *582:I 0
4 *6:13 0.00166655
5 *225:I *206:I 0.000646277
6 *225:I *227:I 6.52556e-05
7 *225:I *511:I 0.000245676
8 *225:I *513:I 0.000387745
9 *225:I *522:A4 0.000384544
10 *225:I *25:31 0.000897733
11 *6:13 *190:I 9.5382e-05
12 *6:13 *511:I 6.53438e-05
13 *6:13 *513:I 0.00111763
14 *6:13 *518:A3 9.739e-05
15 *6:13 *570:I 7.60693e-05
16 *6:13 *82:13 0.000313323
17 *6:13 *89:18 0.000113016
18 *6:13 *98:20 0.00045353
19 *1:13 *6:13 8.33624e-05
20 *5:13 *6:13 0.000318895
*RES
1 clk2 *6:13 22.373 
2 *6:13 *582:I 4.5 
3 *6:13 *225:I 10.948 
*END

*D_NET *7 0.00978398
*CONN
*P i_wb_addr[0] I
*I *228:I I *D gf180mcu_fd_sc_mcu7t5v0__antenna
*I *593:I I *D gf180mcu_fd_sc_mcu7t5v0__buf_1
*CAP
1 i_wb_addr[0] 0.00134911
2 *228:I 0.000357292
3 *593:I 7.55792e-05
4 *7:13 0.00178198
5 *228:I o_wb_data[9] 0
6 *228:I *182:I 0.000810791
7 *228:I *218:I 3.2098e-05
8 *228:I *533:A2 1.57479e-05
9 *228:I *118:18 0.000944001
10 *228:I *173:14 0
11 *593:I *167:16 5.13977e-05
12 *7:13 o_wb_data[7] 0.000237798
13 *7:13 *534:A2 6.98089e-05
14 *7:13 *535:A2 0.00103283
15 *7:13 *535:B 0.00117892
16 *7:13 *539:A1 2.24654e-05
17 *7:13 *551:D 1.78817e-06
18 *7:13 *556:D 0.000103788
19 *7:13 *581:I 6.73892e-06
20 *7:13 *18:19 0
21 *7:13 *40:15 0.000297575
22 *7:13 *43:13 0.000414363
23 *7:13 *118:18 0.000344522
24 *7:13 *119:18 3.84575e-05
25 *7:13 *155:12 3.22108e-05
26 *7:13 *167:16 0.000579374
27 *7:13 *173:14 5.33301e-06
*RES
1 i_wb_addr[0] *7:13 14.82 
2 *7:13 *593:I 5.228 
3 *7:13 *228:I 9.076 
*END

*D_NET *8 0.0175527
*CONN
*P i_wb_addr[10] I
*I *229:I I *D gf180mcu_fd_sc_mcu7t5v0__antenna
*I *596:I I *D gf180mcu_fd_sc_mcu7t5v0__clkbuf_1
*CAP
1 i_wb_addr[10] 0.00154394
2 *229:I 0.00103058
3 *596:I 0.000472034
4 *8:35 0.00304656
5 *229:I *191:I 1.23682e-05
6 *229:I *218:I 0.000327385
7 *229:I *223:I 0.000292322
8 *229:I *514:A1 0.000332906
9 *229:I *528:A1 3.03739e-05
10 *229:I *533:A1 0.000155318
11 *229:I *544:A1 0.000255942
12 *229:I *33:19 0.0002056
13 *229:I *89:121 7.31277e-05
14 *229:I *132:22 0.000108635
15 *596:I *530:A2 9.77244e-05
16 *596:I *152:10 0.000446912
17 *596:I *168:16 0.000747589
18 *596:I *168:25 0.00045572
19 *8:35 *510:I 0.00186233
20 *8:35 *524:A2 6.15997e-06
21 *8:35 *526:A2 4.70855e-05
22 *8:35 *535:A1 0.00112745
23 *8:35 *537:A4 0.00106287
24 *8:35 *539:B 0.000444001
25 *8:35 *540:C 4.75181e-05
26 *8:35 *542:A1 0.000333644
27 *8:35 *544:A1 3.42651e-05
28 *8:35 *545:A4 7.93961e-05
29 *8:35 *9:19 0.000439511
30 *8:35 *14:21 0.00102134
31 *8:35 *32:21 9.50506e-05
32 *8:35 *33:19 3.52234e-05
33 *8:35 *38:17 0.000327805
34 *8:35 *115:14 0.000107648
35 *8:35 *139:24 0.000220116
36 *8:35 *152:10 0.000477229
37 *8:35 *155:12 9.96348e-05
38 *8:35 *168:25 4.93913e-05
*RES
1 i_wb_addr[10] *8:35 42.936 
2 *8:35 *596:I 13.992 
3 *8:35 *229:I 26.632 
*END

*D_NET *9 0.00933249
*CONN
*P i_wb_addr[11] I
*I *230:I I *D gf180mcu_fd_sc_mcu7t5v0__antenna
*I *597:I I *D gf180mcu_fd_sc_mcu7t5v0__clkbuf_1
*CAP
1 i_wb_addr[11] 0.00147584
2 *230:I 0.000145371
3 *597:I 0.00022685
4 *9:19 0.00184806
5 *230:I *231:I 0.000176547
6 *230:I *515:A3 4.21742e-05
7 *230:I *10:5 4.07478e-05
8 *597:I *515:A3 0.000222292
9 *597:I *588:I 1.12327e-05
10 *9:19 *514:A2 0.00242599
11 *9:19 *515:A1 5.38595e-05
12 *9:19 *515:A4 7.51586e-05
13 *9:19 *537:A3 3.91733e-05
14 *9:19 *540:A2 0.000176038
15 *9:19 *545:A3 0.000692533
16 *9:19 *588:I 1.63622e-05
17 *9:19 *10:5 0.000442952
18 *9:19 *38:17 4.78517e-05
19 *9:19 *102:6 5.6426e-05
20 *9:19 *103:8 0.000677529
21 *8:35 *9:19 0.000439511
*RES
1 i_wb_addr[11] *9:19 18.46 
2 *9:19 *597:I 6.892 
3 *9:19 *230:I 6.58 
*END

*D_NET *10 0.00817159
*CONN
*P i_wb_addr[12] I
*I *231:I I *D gf180mcu_fd_sc_mcu7t5v0__antenna
*I *598:I I *D gf180mcu_fd_sc_mcu7t5v0__clkbuf_1
*CAP
1 i_wb_addr[12] 0.00142111
2 *231:I 0.000181484
3 *598:I 0
4 *10:5 0.00160259
5 *231:I *233:I 0
6 *231:I *515:A3 0.000426555
7 *10:5 *514:A2 0.000801246
8 *10:5 *515:A3 0.000185332
9 *10:5 *517:A3 0.00017298
10 *10:5 *536:A2 5.19318e-05
11 *10:5 *537:A1 0.000696055
12 *10:5 *545:A3 0.000474536
13 *10:5 *11:9 0.000359841
14 *10:5 *89:60 0.000711445
15 *10:5 *101:6 0.000121414
16 *10:5 *113:6 0.000304819
17 *230:I *231:I 0.000176547
18 *230:I *10:5 4.07478e-05
19 *9:19 *10:5 0.000442952
*RES
1 i_wb_addr[12] *10:5 16.9 
2 *10:5 *598:I 4.5 
3 *10:5 *231:I 6.892 
*END

*D_NET *11 0.0091406
*CONN
*P i_wb_addr[13] I
*I *599:I I *D gf180mcu_fd_sc_mcu7t5v0__clkbuf_1
*I *232:I I *D gf180mcu_fd_sc_mcu7t5v0__antenna
*CAP
1 i_wb_addr[13] 0.00123358
2 *599:I 2.43942e-05
3 *232:I 0.000495679
4 *11:9 0.00175365
5 *232:I *193:I 0
6 *232:I *509:I 2.20864e-05
7 *232:I *515:A1 5.64569e-05
8 *599:I *515:A3 3.14958e-05
9 *599:I *12:5 7.60808e-05
10 *11:9 *514:A1 9.09864e-05
11 *11:9 *515:A3 1.12609e-05
12 *11:9 *537:A1 1.23682e-05
13 *11:9 *537:A2 6.25184e-05
14 *11:9 *12:5 0.00183716
15 *11:9 *101:6 0.00307304
16 *10:5 *11:9 0.000359841
*RES
1 i_wb_addr[13] *11:9 17.108 
2 *11:9 *232:I 15.892 
3 *11:9 *599:I 5.02 
*END

*D_NET *12 0.00692192
*CONN
*P i_wb_addr[14] I
*I *600:I I *D gf180mcu_fd_sc_mcu7t5v0__clkbuf_1
*I *233:I I *D gf180mcu_fd_sc_mcu7t5v0__antenna
*CAP
1 i_wb_addr[14] 0.00180063
2 *600:I 0.00012757
3 *233:I 0.000193393
4 *12:5 0.00212159
5 *233:I *515:A3 1.88122e-05
6 *600:I *514:A4 0.000103684
7 *12:5 *514:A3 0.000116781
8 *12:5 *514:A4 0.000103541
9 *12:5 *517:A1 0.000103788
10 *12:5 *13:9 0.000318895
11 *231:I *233:I 0
12 *599:I *12:5 7.60808e-05
13 *11:9 *12:5 0.00183716
*RES
1 i_wb_addr[14] *12:5 16.9 
2 *12:5 *233:I 5.852 
3 *12:5 *600:I 5.644 
*END

*D_NET *13 0.00689228
*CONN
*P i_wb_addr[15] I
*I *561:I I *D gf180mcu_fd_sc_mcu7t5v0__clkbuf_1
*I *193:I I *D gf180mcu_fd_sc_mcu7t5v0__antenna
*CAP
1 i_wb_addr[15] 0.00150808
2 *561:I 4.18815e-05
3 *193:I 0.000715588
4 *13:9 0.00226555
5 *193:I *185:I 1.53264e-05
6 *193:I *514:A4 1.87076e-05
7 *13:9 *509:I 0.000213421
8 *13:9 *514:A3 0.000468057
9 *13:9 *514:A4 1.71326e-05
10 *13:9 *517:A1 2.04597e-06
11 *13:9 *547:A1 1.26329e-05
12 *13:9 *14:21 0.000811782
13 *13:9 *109:14 0.000330037
14 *13:9 *109:31 0.000153133
15 *232:I *193:I 0
16 *12:5 *13:9 0.000318895
*RES
1 i_wb_addr[15] *13:9 14.82 
2 *13:9 *193:I 27.492 
3 *13:9 *561:I 4.812 
*END

*D_NET *14 0.0249606
*CONN
*P i_wb_addr[16] I
*I *194:I I *D gf180mcu_fd_sc_mcu7t5v0__antenna
*I *562:I I *D gf180mcu_fd_sc_mcu7t5v0__clkbuf_1
*CAP
1 i_wb_addr[16] 0.00323488
2 *194:I 0.00288138
3 *562:I 0
4 *14:21 0.00611626
5 *194:I o_wb_data[9] 2.78454e-05
6 *194:I o_wb_stall 0.000293351
7 *194:I *182:I 5.01413e-06
8 *194:I *210:I 0
9 *194:I *224:I 0.000617673
10 *194:I *530:A1 0.000121022
11 *194:I *530:A2 0.000295864
12 *194:I *604:I 0.000127343
13 *194:I *42:15 0.000320023
14 *194:I *168:16 0.00142937
15 *14:21 o_wb_stall 0.000431834
16 *14:21 *15:13 0.000367033
17 *14:21 *16:15 0
18 *14:21 *36:17 0.000465685
19 *14:21 *37:15 0.000249383
20 *14:21 *39:15 0.000970001
21 *14:21 *40:15 0.00108555
22 *14:21 *42:15 0.00127173
23 *14:21 *109:14 0.000113016
24 *14:21 *139:24 0.00270323
25 *8:35 *14:21 0.00102134
26 *13:9 *14:21 0.000811782
*RES
1 i_wb_addr[16] *14:21 48.5104 
2 *14:21 *562:I 4.5 
3 *14:21 *194:I 37.164 
*END

*D_NET *15 0.0124721
*CONN
*P i_wb_addr[17] I
*I *195:I I *D gf180mcu_fd_sc_mcu7t5v0__antenna
*I *563:I I *D gf180mcu_fd_sc_mcu7t5v0__clkbuf_1
*CAP
1 i_wb_addr[17] 0.000822398
2 *195:I 0.00288789
3 *563:I 0
4 *15:13 0.00371028
5 *195:I *519:A1 0.000216399
6 *195:I *549:A1 0.000608507
7 *195:I *21:9 0.000329062
8 *195:I *22:17 6.32895e-05
9 *195:I *171:23 5.90026e-05
10 *195:I *171:31 0.000490611
11 *195:I *176:16 0.00030395
12 *15:13 *519:A1 3.22108e-05
13 *15:13 *536:A1 0.000354209
14 *15:13 *16:15 0.000314527
15 *15:13 *22:17 3.22108e-05
16 *15:13 *109:14 0.0018805
17 *14:21 *15:13 0.000367033
*RES
1 i_wb_addr[17] *15:13 19.452 
2 *15:13 *563:I 4.5 
3 *15:13 *195:I 38.044 
*END

*D_NET *16 0.0167466
*CONN
*P i_wb_addr[18] I
*I *564:I I *D gf180mcu_fd_sc_mcu7t5v0__clkbuf_1
*I *196:I I *D gf180mcu_fd_sc_mcu7t5v0__antenna
*CAP
1 i_wb_addr[18] 0.00110612
2 *564:I 2.7416e-05
3 *196:I 0.000965045
4 *16:15 0.00209858
5 *196:I *202:I 9.92201e-06
6 *196:I *206:I 5.13977e-05
7 *196:I *209:I 4.5618e-05
8 *196:I *212:I 0.000406972
9 *196:I *227:I 0.00016645
10 *196:I *512:I 0.000129219
11 *196:I *513:I 0
12 *196:I *518:A3 4.31836e-05
13 *196:I *521:A1 0.00045647
14 *196:I *521:A2 0.000923884
15 *196:I *522:A4 0.00124427
16 *196:I *82:13 0.000358795
17 *564:I *518:A3 1.60338e-05
18 *564:I *82:13 1.91879e-05
19 *16:15 *519:A4 0.00104481
20 *16:15 *536:A2 1.60428e-05
21 *16:15 *570:I 0.00152661
22 *16:15 *17:17 0.000455432
23 *16:15 *19:13 2.85213e-05
24 *16:15 *22:17 0.00196635
25 *16:15 *109:14 0.00224816
26 *16:15 *139:24 0.00107758
27 *14:21 *16:15 0
28 *15:13 *16:15 0.000314527
*RES
1 i_wb_addr[18] *16:15 28.708 
2 *16:15 *196:I 15.628 
3 *16:15 *564:I 4.812 
*END

*D_NET *17 0.0198536
*CONN
*P i_wb_addr[19] I
*I *197:I I *D gf180mcu_fd_sc_mcu7t5v0__antenna
*I *565:I I *D gf180mcu_fd_sc_mcu7t5v0__clkbuf_1
*CAP
1 i_wb_addr[19] 0.0021134
2 *197:I 0.00108297
3 *565:I 0
4 *17:17 0.00319637
5 *197:I *213:I 0.000462358
6 *197:I *515:A4 0.000435731
7 *197:I *530:A1 0.00060279
8 *197:I *533:A1 0.000456032
9 *197:I *535:A2 1.40331e-05
10 *197:I *544:A1 0.000554665
11 *197:I *605:I 0.000610823
12 *197:I *32:21 0.000404989
13 *197:I *43:13 3.10787e-05
14 *197:I *118:18 0.00110855
15 *17:17 *517:A3 0.000510584
16 *17:17 *519:A2 0.00224691
17 *17:17 *520:A2 0.000145815
18 *17:17 *535:A2 0.000489949
19 *17:17 *536:A2 0
20 *17:17 *541:A1 7.88838e-05
21 *17:17 *19:13 0.00035663
22 *17:17 *33:19 0.000999835
23 *17:17 *43:13 0.000213126
24 *17:17 *106:10 0.000247057
25 *17:17 *139:24 0.00303554
26 *17:17 *171:31 0
27 *16:15 *17:17 0.000455432
*RES
1 i_wb_addr[19] *17:17 36.092 
2 *17:17 *565:I 4.5 
3 *17:17 *197:I 36.644 
*END

*D_NET *18 0.0137146
*CONN
*P i_wb_addr[1] I
*I *198:I I *D gf180mcu_fd_sc_mcu7t5v0__antenna
*I *566:I I *D gf180mcu_fd_sc_mcu7t5v0__buf_1
*CAP
1 i_wb_addr[1] 0.00237738
2 *198:I 0.000845237
3 *566:I 7.36249e-06
4 *18:19 0.00322998
5 *198:I o_wb_data[12] 0.000307325
6 *198:I o_wb_data[13] 0.000260445
7 *198:I o_wb_data[3] 0.000169331
8 *198:I o_wb_data[8] 0.000574596
9 *198:I *210:I 0.00112536
10 *198:I *222:I 1.71326e-05
11 *198:I *509:I 0.000278542
12 *198:I *606:I 4.02644e-05
13 *566:I o_wb_data[2] 0.000114849
14 *566:I o_wb_data[5] 0.000114849
15 *18:19 o_wb_data[3] 3.58826e-05
16 *18:19 o_wb_data[4] 0.000143629
17 *18:19 o_wb_data[5] 0.000221678
18 *18:19 o_wb_data[8] 0.00026585
19 *18:19 *514:A1 0.000184043
20 *18:19 *535:A2 5.78489e-05
21 *18:19 *539:A1 2.04597e-06
22 *18:19 *539:B 3.24768e-05
23 *18:19 *550:CLK 1.26446e-05
24 *18:19 *605:I 0.000246492
25 *18:19 *29:23 0.000689217
26 *18:19 *32:21 0.000343352
27 *18:19 *39:15 7.81001e-06
28 *18:19 *40:15 0.000297575
29 *18:19 *41:9 0.00131935
30 *18:19 *139:24 0.000392087
31 *7:13 *18:19 0
*RES
1 i_wb_addr[1] *18:19 29.54 
2 *18:19 *566:I 13.812 
3 *18:19 *198:I 21.82 
*END

*D_NET *19 0.0125686
*CONN
*P i_wb_addr[20] I
*I *567:I I *D gf180mcu_fd_sc_mcu7t5v0__clkbuf_1
*I *199:I I *D gf180mcu_fd_sc_mcu7t5v0__antenna
*CAP
1 i_wb_addr[20] 0.00151061
2 *567:I 0.000176841
3 *199:I 0.000428254
4 *19:13 0.0021157
5 *199:I *202:I 0.00159636
6 *199:I *204:I 6.38863e-05
7 *199:I *205:I 9.72125e-05
8 *199:I *518:A4 0.000103788
9 *199:I *522:A1 5.34458e-06
10 *199:I *522:A2 0.000347043
11 *199:I *523:A1 0.00025082
12 *199:I *23:19 0.00128092
13 *199:I *25:31 2.65749e-05
14 *199:I *28:17 2.22593e-05
15 *567:I *518:A3 0.00037166
16 *567:I *523:A1 7.36623e-05
17 *567:I *523:A3 0.000456305
18 *567:I *31:13 0.000456305
19 *19:13 *518:A3 0.00116638
20 *19:13 *519:A1 0.000759578
21 *19:13 *520:A1 4.85481e-05
22 *19:13 *520:A2 0.000189673
23 *19:13 *523:A1 1.90528e-05
24 *19:13 *20:17 0.000354359
25 *19:13 *22:17 5.85154e-05
26 *19:13 *28:17 8.35178e-06
27 *19:13 *106:10 1.23682e-05
28 *19:13 *139:24 3.68789e-05
29 *19:13 *165:20 3.27257e-05
30 *557:I *19:13 2.94337e-05
31 *5:13 *19:13 8.4059e-05
32 *16:15 *19:13 2.85213e-05
33 *17:17 *19:13 0.00035663
*RES
1 i_wb_addr[20] *19:13 19.424 
2 *19:13 *199:I 15.76 
3 *19:13 *567:I 11.496 
*END

*D_NET *20 0.00813987
*CONN
*P i_wb_addr[21] I
*I *200:I I *D gf180mcu_fd_sc_mcu7t5v0__antenna
*I *568:I I *D gf180mcu_fd_sc_mcu7t5v0__clkbuf_1
*CAP
1 i_wb_addr[21] 0.00109198
2 *200:I 0.000468617
3 *568:I 0
4 *20:17 0.0015606
5 *200:I *523:A2 0.000471574
6 *200:I *540:A1 0.000548432
7 *200:I *549:A1 0
8 *200:I *553:CLK 2.19883e-05
9 *200:I *176:16 0
10 *20:17 *518:A2 0.000260006
11 *20:17 *520:A1 0.00091158
12 *20:17 *523:A2 0.000115431
13 *20:17 *21:9 0.000546088
14 *20:17 *23:19 4.11627e-05
15 *20:17 *24:9 0.000205266
16 *20:17 *98:20 0.000237453
17 *20:17 *139:24 0.000410048
18 *20:17 *165:20 0.000178254
19 *20:17 *171:31 0.000335982
20 *192:I *200:I 0.000299835
21 *557:I *20:17 8.12169e-05
22 *19:13 *20:17 0.000354359
*RES
1 i_wb_addr[21] *20:17 22.572 
2 *20:17 *568:I 4.5 
3 *20:17 *200:I 8.972 
*END

*D_NET *21 0.0132724
*CONN
*P i_wb_addr[22] I
*I *569:I I *D gf180mcu_fd_sc_mcu7t5v0__clkbuf_1
*I *201:I I *D gf180mcu_fd_sc_mcu7t5v0__antenna
*CAP
1 i_wb_addr[22] 0.000982866
2 *569:I 0.000392143
3 *201:I 0.000573112
4 *21:9 0.00194812
5 *201:I *187:I 0.000754785
6 *201:I *202:I 0.000256274
7 *201:I *207:I 1.40331e-05
8 *201:I *208:I 0.000209482
9 *201:I *209:I 4.71408e-05
10 *201:I *26:17 0.000536128
11 *201:I *27:17 3.57634e-06
12 *201:I *28:17 3.92955e-05
13 *569:I *522:A2 0
14 *569:I *523:A3 0.000105493
15 *569:I *27:17 0.000190103
16 *569:I *28:17 2.32843e-05
17 *569:I *98:20 6.26748e-05
18 *21:9 *519:A1 0.00024861
19 *21:9 *22:17 0.000352067
20 *21:9 *26:17 0.000981685
21 *21:9 *27:17 0.000898152
22 *21:9 *89:33 5.17489e-05
23 *21:9 *89:35 0.00183215
24 *21:9 *98:20 0.00074002
25 *21:9 *139:24 0.000410048
26 *21:9 *171:31 0.000708369
27 *195:I *21:9 0.000329062
28 *5:13 *569:I 3.58826e-05
29 *20:17 *21:9 0.000546088
*RES
1 i_wb_addr[22] *21:9 21.92 
2 *21:9 *201:I 23.2769 
3 *21:9 *569:I 20.392 
*END

*D_NET *22 0.0147688
*CONN
*P i_wb_addr[23] I
*I *570:I I *D gf180mcu_fd_sc_mcu7t5v0__clkbuf_1
*I *202:I I *D gf180mcu_fd_sc_mcu7t5v0__antenna
*CAP
1 i_wb_addr[23] 0.000956405
2 *570:I 0.000503076
3 *202:I 0.0011995
4 *22:17 0.00265898
5 *202:I *187:I 3.10787e-05