*SPEF "ieee 1481-1999"
*DESIGN "wb_buttons_leds"
*DATE "11:11:11 Fri 11 11, 1111"
*VENDOR "OpenRCX"
*PROGRAM "Parallel Extraction"
*VERSION "1.0"
*DESIGN_FLOW "NAME_SCOPE LOCAL" "PIN_CAP NONE"
*DIVIDER /
*DELIMITER :
*BUS_DELIMITER []
*T_UNIT 1 NS
*C_UNIT 1 PF
*R_UNIT 1 OHM
*L_UNIT 1 HENRY

*NAME_MAP
*3 buttons[0]
*4 buttons[1]
*5 clk
*6 i_wb_addr[0]
*7 i_wb_addr[10]
*8 i_wb_addr[11]
*9 i_wb_addr[12]
*10 i_wb_addr[13]
*11 i_wb_addr[14]
*12 i_wb_addr[15]
*13 i_wb_addr[16]
*14 i_wb_addr[17]
*15 i_wb_addr[18]
*16 i_wb_addr[19]
*17 i_wb_addr[1]
*18 i_wb_addr[20]
*19 i_wb_addr[21]
*20 i_wb_addr[22]
*21 i_wb_addr[23]
*22 i_wb_addr[24]
*23 i_wb_addr[25]
*24 i_wb_addr[26]
*25 i_wb_addr[27]
*26 i_wb_addr[28]
*27 i_wb_addr[29]
*28 i_wb_addr[2]
*29 i_wb_addr[30]
*30 i_wb_addr[31]
*31 i_wb_addr[3]
*32 i_wb_addr[4]
*33 i_wb_addr[5]
*34 i_wb_addr[6]
*35 i_wb_addr[7]
*36 i_wb_addr[8]
*37 i_wb_addr[9]
*38 i_wb_cyc
*39 i_wb_data[0]
*40 i_wb_data[1]
*41 i_wb_stb
*42 i_wb_we
*43 leds[0]
*44 leds[1]
*45 o_wb_ack
*46 o_wb_data[0]
*47 net54
*48 net55
*49 net56
*50 net57
*51 net58
*52 net59
*53 net60
*54 net61
*55 net62
*56 net63
*57 o_wb_data[1]
*58 net64
*59 net65
*60 net66
*61 net67
*62 net68
*63 net69
*64 net70
*65 net71
*66 net72
*67 net73
*68 net46
*69 net74
*70 net75
*71 net47
*72 net48
*73 net49
*74 net50
*75 net51
*76 net52
*77 net53
*78 net76
*79 reset
*80 _000_
*81 _001_
*82 _002_
*83 _003_
*84 _004_
*85 _005_
*86 _006_
*87 _007_
*88 _008_
*89 _009_
*90 _010_
*91 _011_
*92 _012_
*93 _013_
*94 _014_
*95 _015_
*96 _016_
*97 _017_
*98 _018_
*99 _019_
*100 _020_
*101 _021_
*102 _022_
*103 _023_
*104 _024_
*105 _025_
*106 _026_
*107 _027_
*108 _028_
*109 _029_
*110 _030_
*111 _031_
*112 _032_
*113 _033_
*114 _034_
*115 _035_
*116 _036_
*117 _037_
*118 _038_
*119 _039_
*120 clknet_0_clk
*121 clknet_1_0__leaf_clk
*122 clknet_1_1__leaf_clk
*123 net1
*124 net10
*125 net11
*126 net12
*127 net13
*128 net14
*129 net15
*130 net16
*131 net17
*132 net18
*133 net19
*134 net2
*135 net20
*136 net21
*137 net22
*138 net23
*139 net24
*140 net25
*141 net26
*142 net27
*143 net28
*144 net29
*145 net3
*146 net30
*147 net31
*148 net32
*149 net33
*150 net34
*151 net35
*152 net36
*153 net37
*154 net38
*155 net39
*156 net4
*157 net40
*158 net41
*159 net42
*160 net43
*161 net44
*162 net45
*163 net5
*164 net6
*165 net7
*166 net8
*167 net9
*168 ANTENNA_clkbuf_0_clk_I
*169 ANTENNA_input10_I
*170 ANTENNA_input11_I
*171 ANTENNA_input12_I
*172 ANTENNA_input13_I
*173 ANTENNA_input14_I
*174 ANTENNA_input15_I
*175 ANTENNA_input16_I
*176 ANTENNA_input17_I
*177 ANTENNA_input18_I
*178 ANTENNA_input19_I
*179 ANTENNA_input1_I
*180 ANTENNA_input20_I
*181 ANTENNA_input21_I
*182 ANTENNA_input22_I
*183 ANTENNA_input23_I
*184 ANTENNA_input24_I
*185 ANTENNA_input25_I
*186 ANTENNA_input26_I
*187 ANTENNA_input27_I
*188 ANTENNA_input28_I
*189 ANTENNA_input29_I
*190 ANTENNA_input2_I
*191 ANTENNA_input30_I
*192 ANTENNA_input31_I
*193 ANTENNA_input32_I
*194 ANTENNA_input33_I
*195 ANTENNA_input34_I
*196 ANTENNA_input35_I
*197 ANTENNA_input36_I
*198 ANTENNA_input37_I
*199 ANTENNA_input38_I
*200 ANTENNA_input39_I
*201 ANTENNA_input3_I
*202 ANTENNA_input40_I
*203 ANTENNA_input4_I
*204 ANTENNA_input5_I
*205 ANTENNA_input6_I
*206 ANTENNA_input7_I
*207 ANTENNA_input8_I
*208 ANTENNA_input9_I
*209 FILLER_0_0_101
*210 FILLER_0_0_134
*211 FILLER_0_0_150
*212 FILLER_0_0_25
*213 FILLER_0_0_27
*214 FILLER_0_0_6
*215 FILLER_0_0_70
*216 FILLER_0_0_72
*217 FILLER_0_10_103
*218 FILLER_0_10_131
*219 FILLER_0_10_135
*220 FILLER_0_10_137
*221 FILLER_0_10_16
*222 FILLER_0_10_32
*223 FILLER_0_10_34
*224 FILLER_0_10_37
*225 FILLER_0_10_41
*226 FILLER_0_11_142
*227 FILLER_0_11_38
*228 FILLER_0_11_46
*229 FILLER_0_11_6
*230 FILLER_0_11_64
*231 FILLER_0_11_68
*232 FILLER_0_11_77
*233 FILLER_0_11_81
*234 FILLER_0_12_107
*235 FILLER_0_12_12
*236 FILLER_0_12_123
*237 FILLER_0_12_28
*238 FILLER_0_12_32
*239 FILLER_0_12_34
*240 FILLER_0_12_37
*241 FILLER_0_12_68
*242 FILLER_0_13_114
*243 FILLER_0_13_130
*244 FILLER_0_13_138
*245 FILLER_0_13_142
*246 FILLER_0_13_150
*247 FILLER_0_13_2
*248 FILLER_0_13_38
*249 FILLER_0_13_46
*250 FILLER_0_13_48
*251 FILLER_0_13_53
*252 FILLER_0_13_6
*253 FILLER_0_13_69
*254 FILLER_0_13_72
*255 FILLER_0_13_80
*256 FILLER_0_13_84
*257 FILLER_0_14_101
*258 FILLER_0_14_107
*259 FILLER_0_14_139
*260 FILLER_0_14_147
*261 FILLER_0_14_22
*262 FILLER_0_14_30
*263 FILLER_0_14_34
*264 FILLER_0_14_37
*265 FILLER_0_14_6
*266 FILLER_0_15_109
*267 FILLER_0_15_125
*268 FILLER_0_15_133
*269 FILLER_0_15_137
*270 FILLER_0_15_139
*271 FILLER_0_15_142
*272 FILLER_0_15_146
*273 FILLER_0_15_6
*274 FILLER_0_15_72
*275 FILLER_0_15_77
*276 FILLER_0_16_101
*277 FILLER_0_16_104
*278 FILLER_0_16_108
*279 FILLER_0_16_113
*280 FILLER_0_16_119
*281 FILLER_0_16_125
*282 FILLER_0_16_133
*283 FILLER_0_16_135
*284 FILLER_0_16_138
*285 FILLER_0_16_14
*286 FILLER_0_16_146
*287 FILLER_0_16_30
*288 FILLER_0_16_36
*289 FILLER_0_16_40
*290 FILLER_0_16_42
*291 FILLER_0_16_47
*292 FILLER_0_16_53
*293 FILLER_0_16_59
*294 FILLER_0_16_63
*295 FILLER_0_16_80
*296 FILLER_0_16_84
*297 FILLER_0_16_89
*298 FILLER_0_16_95
*299 FILLER_0_16_99
*300 FILLER_0_1_109
*301 FILLER_0_1_113
*302 FILLER_0_1_117
*303 FILLER_0_1_121
*304 FILLER_0_1_133
*305 FILLER_0_1_142
*306 FILLER_0_1_144
*307 FILLER_0_1_151
*308 FILLER_0_1_24
*309 FILLER_0_2_101
*310 FILLER_0_2_107
*311 FILLER_0_2_115
*312 FILLER_0_2_119
*313 FILLER_0_2_122
*314 FILLER_0_2_128
*315 FILLER_0_2_134
*316 FILLER_0_2_138
*317 FILLER_0_2_16
*318 FILLER_0_2_20
*319 FILLER_0_2_24
*320 FILLER_0_2_29
*321 FILLER_0_2_37
*322 FILLER_0_2_39
*323 FILLER_0_2_44
*324 FILLER_0_2_97
*325 FILLER_0_3_12
*326 FILLER_0_3_128
*327 FILLER_0_3_136
*328 FILLER_0_3_142
*329 FILLER_0_3_146
*330 FILLER_0_3_16
*331 FILLER_0_3_20
*332 FILLER_0_3_24
*333 FILLER_0_3_28
*334 FILLER_0_3_30
*335 FILLER_0_3_72
*336 FILLER_0_3_76
*337 FILLER_0_3_79
*338 FILLER_0_3_8
*339 FILLER_0_3_85
*340 FILLER_0_4_103
*341 FILLER_0_4_107
*342 FILLER_0_4_12
*343 FILLER_0_4_139
*344 FILLER_0_4_147
*345 FILLER_0_4_16
*346 FILLER_0_4_20
*347 FILLER_0_4_28
*348 FILLER_0_4_32
*349 FILLER_0_4_34
*350 FILLER_0_4_37
*351 FILLER_0_4_45
*352 FILLER_0_4_8
*353 FILLER_0_4_83
*354 FILLER_0_4_99
*355 FILLER_0_5_12
*356 FILLER_0_5_129
*357 FILLER_0_5_137
*358 FILLER_0_5_139
*359 FILLER_0_5_142
*360 FILLER_0_5_148
*361 FILLER_0_5_16
*362 FILLER_0_5_18
*363 FILLER_0_5_69
*364 FILLER_0_5_8
*365 FILLER_0_6_101
*366 FILLER_0_6_118
*367 FILLER_0_6_134
*368 FILLER_0_6_138
*369 FILLER_0_6_14
*370 FILLER_0_6_18
*371 FILLER_0_6_22
*372 FILLER_0_6_30
*373 FILLER_0_6_34
*374 FILLER_0_6_37
*375 FILLER_0_6_53
*376 FILLER_0_6_61
*377 FILLER_0_6_63
*378 FILLER_0_7_12
*379 FILLER_0_7_121
*380 FILLER_0_7_137
*381 FILLER_0_7_139
*382 FILLER_0_7_142
*383 FILLER_0_7_20
*384 FILLER_0_7_24
*385 FILLER_0_7_62
*386 FILLER_0_7_8
*387 FILLER_0_8_12
*388 FILLER_0_8_141
*389 FILLER_0_8_143
*390 FILLER_0_8_28
*391 FILLER_0_8_32
*392 FILLER_0_8_34
*393 FILLER_0_8_37
*394 FILLER_0_8_53
*395 FILLER_0_8_8
*396 FILLER_0_9_12
*397 FILLER_0_9_131
*398 FILLER_0_9_139
*399 FILLER_0_9_142
*400 FILLER_0_9_28
*401 FILLER_0_9_32
*402 FILLER_0_9_63
*403 FILLER_0_9_72
*404 FILLER_0_9_74
*405 FILLER_0_9_8
*406 PHY_EDGE_ROW_0_Left_17
*407 PHY_EDGE_ROW_0_Right_0
*408 PHY_EDGE_ROW_10_Left_27
*409 PHY_EDGE_ROW_10_Right_10
*410 PHY_EDGE_ROW_11_Left_28
*411 PHY_EDGE_ROW_11_Right_11
*412 PHY_EDGE_ROW_12_Left_29
*413 PHY_EDGE_ROW_12_Right_12
*414 PHY_EDGE_ROW_13_Left_30
*415 PHY_EDGE_ROW_13_Right_13
*416 PHY_EDGE_ROW_14_Left_31
*417 PHY_EDGE_ROW_14_Right_14
*418 PHY_EDGE_ROW_15_Left_32
*419 PHY_EDGE_ROW_15_Right_15
*420 PHY_EDGE_ROW_16_Left_33
*421 PHY_EDGE_ROW_16_Right_16
*422 PHY_EDGE_ROW_1_Left_18
*423 PHY_EDGE_ROW_1_Right_1
*424 PHY_EDGE_ROW_2_Left_19
*425 PHY_EDGE_ROW_2_Right_2
*426 PHY_EDGE_ROW_3_Left_20
*427 PHY_EDGE_ROW_3_Right_3
*428 PHY_EDGE_ROW_4_Left_21
*429 PHY_EDGE_ROW_4_Right_4
*430 PHY_EDGE_ROW_5_Left_22
*431 PHY_EDGE_ROW_5_Right_5
*432 PHY_EDGE_ROW_6_Left_23
*433 PHY_EDGE_ROW_6_Right_6
*434 PHY_EDGE_ROW_7_Left_24
*435 PHY_EDGE_ROW_7_Right_7
*436 PHY_EDGE_ROW_8_Left_25
*437 PHY_EDGE_ROW_8_Right_8
*438 PHY_EDGE_ROW_9_Left_26
*439 PHY_EDGE_ROW_9_Right_9
*440 TAP_TAPCELL_ROW_0_34
*441 TAP_TAPCELL_ROW_0_35
*442 TAP_TAPCELL_ROW_0_36
*443 TAP_TAPCELL_ROW_0_37
*444 TAP_TAPCELL_ROW_10_56
*445 TAP_TAPCELL_ROW_10_57
*446 TAP_TAPCELL_ROW_11_58
*447 TAP_TAPCELL_ROW_11_59
*448 TAP_TAPCELL_ROW_12_60
*449 TAP_TAPCELL_ROW_12_61
*450 TAP_TAPCELL_ROW_13_62
*451 TAP_TAPCELL_ROW_13_63
*452 TAP_TAPCELL_ROW_14_64
*453 TAP_TAPCELL_ROW_14_65
*454 TAP_TAPCELL_ROW_15_66
*455 TAP_TAPCELL_ROW_15_67
*456 TAP_TAPCELL_ROW_16_68
*457 TAP_TAPCELL_ROW_16_69
*458 TAP_TAPCELL_ROW_16_70
*459 TAP_TAPCELL_ROW_16_71
*460 TAP_TAPCELL_ROW_1_38
*461 TAP_TAPCELL_ROW_1_39
*462 TAP_TAPCELL_ROW_2_40
*463 TAP_TAPCELL_ROW_2_41
*464 TAP_TAPCELL_ROW_3_42
*465 TAP_TAPCELL_ROW_3_43
*466 TAP_TAPCELL_ROW_4_44
*467 TAP_TAPCELL_ROW_4_45
*468 TAP_TAPCELL_ROW_5_46
*469 TAP_TAPCELL_ROW_5_47
*470 TAP_TAPCELL_ROW_6_48
*471 TAP_TAPCELL_ROW_6_49
*472 TAP_TAPCELL_ROW_7_50
*473 TAP_TAPCELL_ROW_7_51
*474 TAP_TAPCELL_ROW_8_52
*475 TAP_TAPCELL_ROW_8_53
*476 TAP_TAPCELL_ROW_9_54
*477 TAP_TAPCELL_ROW_9_55
*478 _040_
*479 _041_
*480 _042_
*481 _043_
*482 _044_
*483 _045_
*484 _046_
*485 _047_
*486 _048_
*487 _049_
*488 _050_
*489 _051_
*490 _052_
*491 _053_
*492 _054_
*493 _055_
*494 _056_
*495 _057_
*496 _058_
*497 _059_
*498 _060_
*499 _061_
*500 _062_
*501 _063_
*502 _064_
*503 _065_
*504 _066_
*505 _067_
*506 _068_
*507 _069_
*508 _070_
*509 _071_
*510 _072_
*511 _073_
*512 _074_
*513 _075_
*514 _076_
*515 _077_
*516 _078_
*517 _079_
*518 _080_
*519 _081_
*520 _082_
*521 _083_
*522 _084_
*523 clkbuf_0_clk
*524 clkbuf_1_0__f_clk
*525 clkbuf_1_1__f_clk
*526 input1
*527 input10
*528 input11
*529 input12
*530 input13
*531 input14
*532 input15
*533 input16
*534 input17
*535 input18
*536 input19
*537 input2
*538 input20
*539 input21
*540 input22
*541 input23
*542 input24
*543 input25
*544 input26
*545 input27
*546 input28
*547 input29
*548 input3
*549 input30
*550 input31
*551 input32
*552 input33
*553 input34
*554 input35
*555 input36
*556 input37
*557 input38
*558 input39
*559 input4
*560 input40
*561 input5
*562 input6
*563 input7
*564 input8
*565 input9
*566 output41
*567 output42
*568 output43
*569 output44
*570 output45
*571 wb_buttons_leds_46
*572 wb_buttons_leds_47
*573 wb_buttons_leds_48
*574 wb_buttons_leds_49
*575 wb_buttons_leds_50
*576 wb_buttons_leds_51
*577 wb_buttons_leds_52
*578 wb_buttons_leds_53
*579 wb_buttons_leds_54
*580 wb_buttons_leds_55
*581 wb_buttons_leds_56
*582 wb_buttons_leds_57
*583 wb_buttons_leds_58
*584 wb_buttons_leds_59
*585 wb_buttons_leds_60
*586 wb_buttons_leds_61
*587 wb_buttons_leds_62
*588 wb_buttons_leds_63
*589 wb_buttons_leds_64
*590 wb_buttons_leds_65
*591 wb_buttons_leds_66
*592 wb_buttons_leds_67
*593 wb_buttons_leds_68
*594 wb_buttons_leds_69
*595 wb_buttons_leds_70
*596 wb_buttons_leds_71
*597 wb_buttons_leds_72
*598 wb_buttons_leds_73
*599 wb_buttons_leds_74
*600 wb_buttons_leds_75
*601 wb_buttons_leds_76

*PORTS
buttons[0] I
buttons[1] I
clk I
i_wb_addr[0] I
i_wb_addr[10] I
i_wb_addr[11] I
i_wb_addr[12] I
i_wb_addr[13] I
i_wb_addr[14] I
i_wb_addr[15] I
i_wb_addr[16] I
i_wb_addr[17] I
i_wb_addr[18] I
i_wb_addr[19] I
i_wb_addr[1] I
i_wb_addr[20] I
i_wb_addr[21] I
i_wb_addr[22] I
i_wb_addr[23] I
i_wb_addr[24] I
i_wb_addr[25] I
i_wb_addr[26] I
i_wb_addr[27] I
i_wb_addr[28] I
i_wb_addr[29] I
i_wb_addr[2] I
i_wb_addr[30] I
i_wb_addr[31] I
i_wb_addr[3] I
i_wb_addr[4] I
i_wb_addr[5] I
i_wb_addr[6] I
i_wb_addr[7] I
i_wb_addr[8] I
i_wb_addr[9] I
i_wb_cyc I
i_wb_data[0] I
i_wb_data[1] I
i_wb_stb I
i_wb_we I
leds[0] O
leds[1] O
o_wb_ack O
o_wb_data[0] O
o_wb_data[10] O
o_wb_data[11] O
o_wb_data[12] O
o_wb_data[13] O
o_wb_data[14] O
o_wb_data[15] O
o_wb_data[16] O
o_wb_data[17] O
o_wb_data[18] O
o_wb_data[19] O
o_wb_data[1] O
o_wb_data[20] O
o_wb_data[21] O
o_wb_data[22] O
o_wb_data[23] O
o_wb_data[24] O
o_wb_data[25] O
o_wb_data[26] O
o_wb_data[27] O
o_wb_data[28] O
o_wb_data[29] O
o_wb_data[2] O
o_wb_data[30] O
o_wb_data[31] O
o_wb_data[3] O
o_wb_data[4] O
o_wb_data[5] O
o_wb_data[6] O
o_wb_data[7] O
o_wb_data[8] O
o_wb_data[9] O
o_wb_stall O
reset I

*D_NET *3 0.00141444
*CONN
*P buttons[0] I
*I *526:I I *D gf180mcu_fd_sc_mcu7t5v0__clkbuf_1
*I *179:I I *D gf180mcu_fd_sc_mcu7t5v0__antenna
*CAP
1 buttons[0] 0.000454104
2 *526:I 4.44437e-05
3 *179:I 0.000107478
4 *3:9 0.000606025
5 *179:I *503:A1 8.56628e-05
6 *526:I *503:A1 2.39156e-06
7 *3:9 o_wb_ack 4.67312e-05
8 *3:9 o_wb_data[1] 4.37124e-05
9 *3:9 *503:A1 2.38865e-05
*RES
1 buttons[0] *3:9 7.776 
2 *3:9 *179:I 5.644 
3 *3:9 *526:I 4.812 
*END

*D_NET *4 0.00113444
*CONN
*P buttons[1] I
*I *537:I I *D gf180mcu_fd_sc_mcu7t5v0__clkbuf_1
*I *190:I I *D gf180mcu_fd_sc_mcu7t5v0__antenna
*CAP
1 buttons[1] 0.000311559
2 *537:I 3.72791e-05
3 *190:I 0.000145316
4 *4:9 0.000494154
5 *190:I *200:I 0
6 *190:I *508:A1 0
7 *190:I *79:9 2.82894e-06
8 *190:I *155:10 2.9156e-05
9 *537:I *503:A1 5.47431e-06
10 *537:I *508:A1 1.12327e-05
11 *4:9 *42:5 2.72048e-05
12 *4:9 *79:9 7.02365e-05
*RES
1 buttons[1] *4:9 2.548 
2 *4:9 *190:I 10.144 
3 *4:9 *537:I 9.312 
*END

*D_NET *5 0.00683445
*CONN
*P clk I
*I *168:I I *D gf180mcu_fd_sc_mcu7t5v0__antenna
*I *523:I I *D gf180mcu_fd_sc_mcu7t5v0__clkbuf_16
*CAP
1 clk 0.00223338
2 *168:I 0
3 *523:I 0.000417779
4 *5:9 0.00265116
5 *523:I *504:A2 2.38865e-05
6 *523:I *507:B 0
7 *523:I *511:A2 0
8 *523:I *122:19 0
9 *5:9 o_wb_data[8] 5.92105e-05
10 *5:9 *479:I 0.000981759
11 *5:9 *504:A1 6.03497e-05
12 *5:9 *504:A2 5.47431e-06
13 *5:9 *514:A1 0.000120575
14 *5:9 *519:D 4.22072e-05
15 *5:9 *519:CLK 7.45101e-06
16 *5:9 *520:CLK 0
17 *5:9 *566:I 2.90272e-05
18 *5:9 *39:7 5.92105e-05
19 *5:9 *122:19 0
20 *5:9 *158:21 0.000142986
*RES
1 clk *5:9 25.04 
2 *5:9 *523:I 7.308 
3 *5:9 *168:I 4.5 
*END

*D_NET *6 0.00688983
*CONN
*P i_wb_addr[0] I
*I *201:I I *D gf180mcu_fd_sc_mcu7t5v0__antenna
*I *548:I I *D gf180mcu_fd_sc_mcu7t5v0__buf_1
*CAP
1 i_wb_addr[0] 0.00100124
2 *201:I 0.000417361
3 *548:I 0
4 *6:13 0.0014186
5 *201:I o_wb_data[29] 0.000159926
6 *201:I *173:I 0.000816993
7 *201:I *181:I 6.45311e-05
8 *201:I *189:I 0.000117951
9 *201:I *203:I 0.000324815
10 *201:I *484:A4 6.64873e-05
11 *201:I *145:16 0.000352347
12 *6:13 o_wb_data[29] 0.000340917
13 *6:13 o_wb_data[31] 0.000308363
14 *6:13 *189:I 6.74867e-05
15 *6:13 *484:A4 0.000119557
16 *6:13 *7:15 0.00131325
*RES
1 i_wb_addr[0] *6:13 20.284 
2 *6:13 *548:I 4.5 
3 *6:13 *201:I 18.596 
*END

*D_NET *7 0.00512517
*CONN
*P i_wb_addr[10] I
*I *203:I I *D gf180mcu_fd_sc_mcu7t5v0__antenna
*I *559:I I *D gf180mcu_fd_sc_mcu7t5v0__clkbuf_1
*CAP
1 i_wb_addr[10] 0.000959198
2 *203:I 0.000244494
3 *559:I 0
4 *7:15 0.00120369
5 *203:I *173:I 3.11657e-05
6 *203:I *189:I 0.000123021
7 *7:15 o_wb_data[27] 1.63607e-05
8 *7:15 o_wb_data[29] 0.00028596
9 *7:15 *173:I 0.000410048
10 *7:15 *189:I 5.32552e-05
11 *7:15 *32:11 0.000149175
12 *7:15 *128:24 1.07369e-05
13 *201:I *203:I 0.000324815
14 *6:13 *7:15 0.00131325
*RES
1 i_wb_addr[10] *7:15 20.388 
2 *7:15 *559:I 4.5 
3 *7:15 *203:I 6.996 
*END

*D_NET *8 0.0033799
*CONN
*P i_wb_addr[11] I
*I *204:I I *D gf180mcu_fd_sc_mcu7t5v0__antenna
*I *561:I I *D gf180mcu_fd_sc_mcu7t5v0__clkbuf_1
*CAP
1 i_wb_addr[11] 0.00108612
2 *204:I 0.000216097
3 *561:I 0
4 *8:9 0.00130222
5 *204:I *208:I 2.66236e-05
6 *8:9 *169:I 0.000139186
7 *8:9 *208:I 1.01781e-05
8 *8:9 *487:A2 5.63044e-06
9 *8:9 *9:13 0.000593848
*RES
1 i_wb_addr[11] *8:9 9.62 
2 *8:9 *561:I 4.5 
3 *8:9 *204:I 6.164 
*END

*D_NET *9 0.00481747
*CONN
*P i_wb_addr[12] I
*I *205:I I *D gf180mcu_fd_sc_mcu7t5v0__antenna
*I *562:I I *D gf180mcu_fd_sc_mcu7t5v0__clkbuf_1
*CAP
1 i_wb_addr[12] 0.000711179
2 *205:I 0.000159867
3 *562:I 4.73707e-05
4 *9:13 0.000918417
5 *205:I o_wb_data[13] 8.42801e-05
6 *205:I *208:I 1.8858e-05
7 *205:I *486:A4 0.000202476
8 *562:I *169:I 3.48215e-05
9 *562:I *483:A3 0.000280581
10 *9:13 o_wb_data[13] 5.23324e-05
11 *9:13 *169:I 0.000102779
12 *9:13 *483:A3 0.000468812
13 *9:13 *13:9 0.00114185
14 *8:9 *9:13 0.000593848
*RES
1 i_wb_addr[12] *9:13 13.392 
2 *9:13 *562:I 9.728 
3 *9:13 *205:I 10.56 
*END

*D_NET *10 0.00419526
*CONN
*P i_wb_addr[13] I
*I *563:I I *D gf180mcu_fd_sc_mcu7t5v0__clkbuf_1
*I *206:I I *D gf180mcu_fd_sc_mcu7t5v0__antenna
*CAP
1 i_wb_addr[13] 0.000406774
2 *563:I 0.00028117
3 *206:I 0.000468116
4 *10:5 0.00115606
5 *206:I *195:I 0.000167455
6 *206:I *207:I 1.53714e-05
7 *206:I *485:A1 0.000143883
8 *206:I *485:A2 0.0010961
9 *206:I *37:9 0.000102579
10 *563:I o_wb_data[28] 6.87243e-05
11 *563:I *207:I 1.07369e-05
12 *563:I *482:A4 1.32185e-05
13 *563:I *21:13 0
14 *10:5 o_wb_data[28] 0.000112814
15 *10:5 *37:9 0.000152252
*RES
1 i_wb_addr[13] *10:5 4.42 
2 *10:5 *206:I 9.596 
3 *10:5 *563:I 6.372 
*END

*D_NET *11 0.00625954
*CONN
*P i_wb_addr[14] I
*I *564:I I *D gf180mcu_fd_sc_mcu7t5v0__clkbuf_1
*I *207:I I *D gf180mcu_fd_sc_mcu7t5v0__antenna
*CAP
1 i_wb_addr[14] 0.000916158
2 *564:I 4.40067e-05
3 *207:I 0.000603879
4 *11:9 0.00156404
5 *207:I *482:A4 0.00010677
6 *207:I *485:A2 3.65897e-05
7 *207:I *513:A4 3.45047e-05
8 *207:I *117:14 0.000108895
9 *564:I o_wb_data[28] 0.000132664
10 *564:I *482:A3 0.000133258
11 *11:9 o_wb_data[28] 1.23478e-05
12 *11:9 *482:A1 0.00159426
13 *11:9 *482:A3 0.00066551
14 *11:9 *482:A4 1.76416e-05
15 *11:9 *505:A2 3.38238e-06
16 *11:9 *505:A3 7.87395e-06
17 *11:9 *505:A4 5.78216e-06
18 *11:9 *33:9 0.000121055
19 *11:9 *36:7 0.000124811
20 *206:I *207:I 1.53714e-05
21 *563:I *207:I 1.07369e-05
*RES
1 i_wb_addr[14] *11:9 14.848 
2 *11:9 *207:I 13.264 
3 *11:9 *564:I 9.936 
*END

*D_NET *12 0.00460003
*CONN
*P i_wb_addr[15] I
*I *565:I I *D gf180mcu_fd_sc_mcu7t5v0__clkbuf_1
*I *208:I I *D gf180mcu_fd_sc_mcu7t5v0__antenna
*CAP
1 i_wb_addr[15] 0.00078988
2 *565:I 0
3 *208:I 0.000442028
4 *12:9 0.00123191
5 *208:I o_wb_data[13] 0.000548432
6 *208:I *482:A3 0.000235259
7 *208:I *483:A3 8.04221e-05
8 *208:I *486:A4 3.30633e-05
9 *208:I *487:A2 0.000325466
10 *208:I *13:9 8.75458e-05
11 *12:9 *482:A3 8.16022e-05
12 *12:9 *13:9 0.000574773
13 *12:9 *20:9 0.000113995
14 *204:I *208:I 2.66236e-05
15 *205:I *208:I 1.8858e-05
16 *8:9 *208:I 1.01781e-05
*RES
1 i_wb_addr[15] *12:9 7.332 
2 *12:9 *208:I 9.284 
3 *12:9 *565:I 4.5 
*END

*D_NET *13 0.00519964
*CONN
*P i_wb_addr[16] I
*I *169:I I *D gf180mcu_fd_sc_mcu7t5v0__antenna
*I *527:I I *D gf180mcu_fd_sc_mcu7t5v0__clkbuf_1
*CAP
1 i_wb_addr[16] 0.000572505
2 *169:I 0.000336888
3 *527:I 0
4 *13:9 0.000909393
5 *169:I *176:I 2.21365e-05
6 *169:I *483:A3 0.000381853
7 *169:I *486:A4 6.32895e-05
8 *169:I *487:A2 0.000728829
9 *13:9 *483:A3 0.000103788
10 *208:I *13:9 8.75458e-05
11 *562:I *169:I 3.48215e-05
12 *8:9 *169:I 0.000139186
13 *9:13 *169:I 0.000102779
14 *9:13 *13:9 0.00114185
15 *12:9 *13:9 0.000574773
*RES
1 i_wb_addr[16] *13:9 7.748 
2 *13:9 *527:I 4.5 
3 *13:9 *169:I 17.556 
*END

*D_NET *14 0.00246409
*CONN
*P i_wb_addr[17] I
*I *528:I I *D gf180mcu_fd_sc_mcu7t5v0__clkbuf_1
*I *170:I I *D gf180mcu_fd_sc_mcu7t5v0__antenna
*CAP
1 i_wb_addr[17] 0.000609406
2 *528:I 0.000110583
3 *170:I 0
4 *14:5 0.000719989
5 *528:I *174:I 5.27616e-05
6 *528:I *486:A2 0.000226031
7 *14:5 *174:I 0.000160672
8 *14:5 *486:A2 0.000104188
9 *14:5 *533:I 0.000103788
10 *14:5 *18:13 0.000260319
11 *14:5 *20:9 0.000116356
*RES
1 i_wb_addr[17] *14:5 6.5 
2 *14:5 *170:I 4.5 
3 *14:5 *528:I 5.748 
*END

*D_NET *15 0.00296499
*CONN
*P i_wb_addr[18] I
*I *171:I I *D gf180mcu_fd_sc_mcu7t5v0__antenna
*I *529:I I *D gf180mcu_fd_sc_mcu7t5v0__clkbuf_1
*CAP
1 i_wb_addr[18] 0.000672848
2 *171:I 0.000124852
3 *529:I 0
4 *15:9 0.0007977
5 *171:I *175:I 0.000103468
6 *171:I *487:A4 0.000163858
7 *15:9 *172:I 0
8 *15:9 *175:I 2.24654e-05
9 *15:9 *177:I 0
10 *15:9 *487:A3 0
11 *15:9 *487:A4 5.13977e-05
12 *15:9 *16:11 8.89575e-05
13 *15:9 *19:9 0.000939447
*RES
1 i_wb_addr[18] *15:9 7.748 
2 *15:9 *529:I 4.5 
3 *15:9 *171:I 5.852 
*END

*D_NET *16 0.00335918
*CONN
*P i_wb_addr[19] I
*I *172:I I *D gf180mcu_fd_sc_mcu7t5v0__antenna
*I *530:I I *D gf180mcu_fd_sc_mcu7t5v0__clkbuf_1
*CAP
1 i_wb_addr[19] 0.000828184
2 *172:I 0.000221153
3 *530:I 0
4 *16:11 0.00104934
5 *172:I *487:A3 9.36472e-05
6 *172:I *487:A4 0.000153606
7 *16:11 *482:A3 0.000363451
8 *16:11 *482:A4 0
9 *16:11 *486:A3 1.40331e-05
10 *16:11 *487:A3 0
11 *16:11 *21:13 0.000546807
12 *15:9 *172:I 0
13 *15:9 *16:11 8.89575e-05
*RES
1 i_wb_addr[19] *16:11 16.644 
2 *16:11 *530:I 4.5 
3 *16:11 *172:I 6.372 
*END

*D_NET *17 0.00585204
*CONN
*P i_wb_addr[1] I
*I *173:I I *D gf180mcu_fd_sc_mcu7t5v0__antenna
*I *531:I I *D gf180mcu_fd_sc_mcu7t5v0__buf_1
*CAP
1 i_wb_addr[1] 0.000430661
2 *173:I 0.00049259
3 *531:I 0
4 *17:9 0.000923251
5 *173:I o_wb_data[12] 0.000747849
6 *173:I *181:I 0.000569975
7 *173:I *187:I 1.6659e-05
8 *173:I *192:I 0
9 *173:I *484:A4 5.34458e-06
10 *173:I *128:24 4.16532e-05
11 *17:9 o_wb_data[12] 0.00105895
12 *17:9 o_wb_data[27] 5.41734e-05
13 *17:9 *28:9 0.00016292
14 *17:9 *34:7 5.61117e-05
15 *17:9 *128:24 3.3698e-05
16 *201:I *173:I 0.000816993
17 *203:I *173:I 3.11657e-05
18 *7:15 *173:I 0.000410048
*RES
1 i_wb_addr[1] *17:9 5.876 
2 *17:9 *531:I 4.5 
3 *17:9 *173:I 10.74 
*END

*D_NET *18 0.0041754
*CONN
*P i_wb_addr[20] I
*I *174:I I *D gf180mcu_fd_sc_mcu7t5v0__antenna
*I *532:I I *D gf180mcu_fd_sc_mcu7t5v0__clkbuf_1
*CAP
1 i_wb_addr[20] 0.0005537
2 *174:I 0.000309189
3 *532:I 0.000144529
4 *18:13 0.00100742
5 *174:I *486:A1 0.000633373
6 *174:I *486:A2 4.59039e-05
7 *174:I *533:I 3.4596e-05
8 *532:I *482:A3 0.000229355
9 *532:I *533:I 0.000107648
10 *18:13 *175:I 1.22905e-05
11 *18:13 *486:A1 0.000113027
12 *18:13 *533:I 0.000103788
13 *18:13 *19:9 0.00040683
14 *528:I *174:I 5.27616e-05
15 *14:5 *174:I 0.000160672
16 *14:5 *18:13 0.000260319
*RES
1 i_wb_addr[20] *18:13 6.5 
2 *18:13 *532:I 15.06 
3 *18:13 *174:I 7.932 
*END

*D_NET *19 0.00519998
*CONN
*P i_wb_addr[21] I
*I *175:I I *D gf180mcu_fd_sc_mcu7t5v0__antenna
*I *533:I I *D gf180mcu_fd_sc_mcu7t5v0__clkbuf_1
*CAP
1 i_wb_addr[21] 0.000448765
2 *175:I 0.000279652
3 *533:I 0.000238191
4 *19:9 0.000966609
5 *175:I *486:A1 0.00117655
6 *175:I *487:A1 0.000175283
7 *175:I *487:A4 1.77406e-05
8 *533:I *482:A3 6.28659e-05
9 *171:I *175:I 0.000103468
10 *174:I *533:I 3.4596e-05
11 *532:I *533:I 0.000107648
12 *14:5 *533:I 0.000103788
13 *15:9 *175:I 2.24654e-05
14 *15:9 *19:9 0.000939447
15 *18:13 *175:I 1.22905e-05
16 *18:13 *533:I 0.000103788
17 *18:13 *19:9 0.00040683
*RES
1 i_wb_addr[21] *19:9 6.5 
2 *19:9 *533:I 14.956 
3 *19:9 *175:I 8.556 
*END

*D_NET *20 0.00392963
*CONN
*P i_wb_addr[22] I
*I *176:I I *D gf180mcu_fd_sc_mcu7t5v0__antenna
*I *534:I I *D gf180mcu_fd_sc_mcu7t5v0__clkbuf_1
*CAP
1 i_wb_addr[22] 0.000584152
2 *176:I 0.000457648
3 *534:I 0.000299552
4 *20:9 0.00134135
5 *176:I *486:A2 0.000782267
6 *176:I *486:A4 7.38516e-06
7 *534:I *482:A3 0.000154417
8 *534:I *486:A4 4.18157e-05
9 *20:9 *486:A2 7.87395e-06
10 *20:9 *486:A4 6.8199e-07
11 *169:I *176:I 2.21365e-05
12 *12:9 *20:9 0.000113995
13 *14:5 *20:9 0.000116356
*RES
1 i_wb_addr[22] *20:9 5.46 
2 *20:9 *534:I 15.58 
3 *20:9 *176:I 8.452 
*END

*D_NET *21 0.00360332
*CONN
*P i_wb_addr[23] I
*I *177:I I *D gf180mcu_fd_sc_mcu7t5v0__antenna
*I *535:I I *D gf180mcu_fd_sc_mcu7t5v0__clkbuf_1
*CAP
1 i_wb_addr[23] 0.000796281
2 *177:I 0.00023263
3 *535:I 0
4 *21:13 0.00102891
5 *177:I *483:A3 2.81522e-06
6 *177:I *486:A3 1.87559e-05
7 *177:I *487:A3 0.000519999
8 *21:13 o_wb_data[28] 0.000296691
9 *21:13 *482:A3 0.000115744
10 *21:13 *482:A4 7.87395e-06
11 *21:13 *486:A3 3.22108e-05
12 *21:13 *487:A3 4.60339e-06
13 *563:I *21:13 0
14 *15:9 *177:I 0
15 *16:11 *21:13 0.000546807
*RES
1 i_wb_addr[23] *21:13 16.748 
2 *21:13 *535:I 4.5 
3 *21:13 *177:I 6.788 
*END

*D_NET *22 0.00123766
*CONN
*P i_wb_addr[24] I
*I *178:I I *D gf180mcu_fd_sc_mcu7t5v0__antenna
*I *536:I I *D gf180mcu_fd_sc_mcu7t5v0__clkbuf_1
*CAP
1 i_wb_addr[24] 0.000168492
2 *178:I 0.000245335
3 *536:I 5.7877e-05
4 *22:5 0.000471704
5 *178:I *180:I 2.97034e-05
6 *178:I *182:I 3.27257e-05
7 *178:I *490:A3 2.38773e-05
8 *178:I *491:A1 4.18157e-05
9 *178:I *25:5 1.18566e-06
10 *536:I *490:A2 4.63426e-05
11 *22:5 *180:I 3.20057e-06
12 *22:5 *23:5 5.92105e-05
13 *22:5 *25:5 5.61882e-05
*RES
1 i_wb_addr[24] *22:5 1.924 
2 *22:5 *536:I 9.52 
3 *22:5 *178:I 10.872 
*END

*D_NET *23 0.00174535
*CONN
*P i_wb_addr[25] I
*I *180:I I *D gf180mcu_fd_sc_mcu7t5v0__antenna
*I *538:I I *D gf180mcu_fd_sc_mcu7t5v0__clkbuf_1
*CAP
1 i_wb_addr[25] 0.000164306
2 *180:I 0.000289679
3 *538:I 0
4 *23:5 0.000453985
5 *180:I *184:I 4.41424e-06
6 *180:I *490:A1 0.000343529
7 *180:I *490:A2 8.35178e-06
8 *180:I *491:A1 1.07369e-05
9 *180:I *542:I 0.000305617
10 *180:I *27:9 1.64325e-05
11 *23:5 *27:9 5.61882e-05
12 *178:I *180:I 2.97034e-05
13 *22:5 *180:I 3.20057e-06
14 *22:5 *23:5 5.92105e-05
*RES
1 i_wb_addr[25] *23:5 1.924 
2 *23:5 *538:I 9 
3 *23:5 *180:I 11.496 
*END

*D_NET *24 0.00258417
*CONN
*P i_wb_addr[26] I
*I *181:I I *D gf180mcu_fd_sc_mcu7t5v0__antenna
*I *539:I I *D gf180mcu_fd_sc_mcu7t5v0__clkbuf_1
*CAP
1 i_wb_addr[26] 0.000279684
2 *181:I 0.000427501
3 *539:I 3.02025e-05
4 *24:7 0.000737388
5 *181:I *183:I 8.63e-05
6 *181:I *189:I 1.9738e-05
7 *181:I *484:A2 0
8 *181:I *484:A4 0.000123108
9 *539:I *484:A2 0.000113027
10 *24:7 o_wb_data[31] 5.09763e-05
11 *24:7 *183:I 2.37836e-06
12 *24:7 *189:I 2.64624e-05
13 *24:7 *26:5 5.28971e-05
14 *173:I *181:I 0.000569975
15 *201:I *181:I 6.45311e-05
*RES
1 i_wb_addr[26] *24:7 2.652 
2 *24:7 *539:I 9.312 
3 *24:7 *181:I 12.744 
*END

*D_NET *25 0.0013375
*CONN
*P i_wb_addr[27] I
*I *182:I I *D gf180mcu_fd_sc_mcu7t5v0__antenna
*I *540:I I *D gf180mcu_fd_sc_mcu7t5v0__clkbuf_1
*CAP
1 i_wb_addr[27] 0.000198269
2 *182:I 0.00027095
3 *540:I 7.91823e-05
4 *25:5 0.000548402
5 *182:I *198:I 1.12991e-05
6 *182:I *478:I 5.35151e-05
7 *182:I *490:A3 2.01852e-05
8 *182:I *40:5 1.18566e-06
9 *540:I *490:A3 1.33033e-05
10 *25:5 *40:5 5.11096e-05
11 *178:I *182:I 3.27257e-05
12 *178:I *25:5 1.18566e-06
13 *22:5 *25:5 5.61882e-05
*RES
1 i_wb_addr[27] *25:5 1.924 
2 *25:5 *540:I 9.52 
3 *25:5 *182:I 10.872 
*END

*D_NET *26 0.00179271
*CONN
*P i_wb_addr[28] I
*I *183:I I *D gf180mcu_fd_sc_mcu7t5v0__antenna
*I *541:I I *D gf180mcu_fd_sc_mcu7t5v0__clkbuf_1
*CAP
1 i_wb_addr[28] 0.000195837
2 *183:I 0.000260906
3 *541:I 0.000109637
4 *26:5 0.000566381
5 *183:I *187:I 5.94745e-06
6 *183:I *192:I 9.48851e-05
7 *183:I *484:A2 5.7534e-05
8 *183:I *484:A4 0.000178559
9 *183:I *30:5 1.18566e-06
10 *541:I *484:A2 0.00012915
11 *26:5 *30:5 5.11096e-05
12 *181:I *183:I 8.63e-05
13 *24:7 *183:I 2.37836e-06
14 *24:7 *26:5 5.28971e-05
*RES
1 i_wb_addr[28] *26:5 1.924 
2 *26:5 *541:I 9.936 
3 *26:5 *183:I 11.288 
*END

*D_NET *27 0.00361391
*CONN
*P i_wb_addr[29] I
*I *184:I I *D gf180mcu_fd_sc_mcu7t5v0__antenna
*I *542:I I *D gf180mcu_fd_sc_mcu7t5v0__clkbuf_1
*CAP
1 i_wb_addr[29] 0.000226201
2 *184:I 0.000205967
3 *542:I 0.000120134
4 *27:9 0.000552303
5 *184:I *489:A2 0
6 *184:I *490:A2 0.000608792
7 *184:I *490:A3 0.000584656
8 *184:I *490:A4 1.78817e-06
9 *542:I *490:A3 0.000113498
10 *27:9 *186:I 0.000207626
11 *27:9 *490:A2 0.000355286
12 *27:9 *490:A3 0.000199998
13 *27:9 *29:9 5.50025e-05
14 *180:I *184:I 4.41424e-06
15 *180:I *542:I 0.000305617
16 *180:I *27:9 1.64325e-05
17 *23:5 *27:9 5.61882e-05
*RES
1 i_wb_addr[29] *27:9 3.588 
2 *27:9 *542:I 10.144 
3 *27:9 *184:I 11.496 
*END

*D_NET *28 0.00374635
*CONN
*P i_wb_addr[2] I
*I *185:I I *D gf180mcu_fd_sc_mcu7t5v0__antenna
*I *543:I I *D gf180mcu_fd_sc_mcu7t5v0__buf_1
*CAP
1 i_wb_addr[2] 0.000453004
2 *185:I 0.00019466
3 *543:I 0
4 *28:9 0.000647663
5 *185:I o_wb_data[10] 3.42651e-05
6 *185:I o_wb_data[27] 0.0005626
7 *185:I *189:I 8.61461e-05
8 *185:I *140:14 0.00102384
9 *28:9 o_wb_data[10] 0.000173132
10 *28:9 o_wb_data[27] 0.000408125
11 *17:9 *28:9 0.00016292
*RES
1 i_wb_addr[2] *28:9 5.46 
2 *28:9 *543:I 4.5 
3 *28:9 *185:I 8.036 
*END

*D_NET *29 0.00264787
*CONN
*P i_wb_addr[30] I
*I *544:I I *D gf180mcu_fd_sc_mcu7t5v0__clkbuf_1
*I *186:I I *D gf180mcu_fd_sc_mcu7t5v0__antenna
*CAP
1 i_wb_addr[30] 0.000353279
2 *544:I 6.5394e-05
3 *186:I 4.42521e-05
4 *29:9 0.000462926
5 *186:I *489:A1 0.000701132
6 *186:I *490:A3 0.000626417
7 *544:I *490:A3 2.81522e-06
8 *29:9 *187:I 1.18566e-06
9 *29:9 *489:A1 7.16472e-05
10 *29:9 *30:5 5.61882e-05
11 *27:9 *186:I 0.000207626
12 *27:9 *29:9 5.50025e-05
*RES
1 i_wb_addr[30] *29:9 7.568 
2 *29:9 *186:I 15.892 
3 *29:9 *544:I 4.812 
*END

*D_NET *30 0.00187659
*CONN
*P i_wb_addr[31] I
*I *187:I I *D gf180mcu_fd_sc_mcu7t5v0__antenna
*I *545:I I *D gf180mcu_fd_sc_mcu7t5v0__clkbuf_1
*CAP
1 i_wb_addr[31] 0.000198269
2 *187:I 0.0002551
3 *545:I 0.000141666
4 *30:5 0.000595035
5 *187:I *192:I 0.000119075
6 *187:I *484:A2 2.76472e-05
7 *187:I *489:A1 0
8 *187:I *490:A4 3.38238e-06
9 *187:I *491:A2 0.000352347
10 *545:I *489:A1 1.12327e-05
11 *545:I *490:A4 4.05593e-05
12 *173:I *187:I 1.6659e-05
13 *183:I *187:I 5.94745e-06
14 *183:I *30:5 1.18566e-06
15 *26:5 *30:5 5.11096e-05
16 *29:9 *187:I 1.18566e-06
17 *29:9 *30:5 5.61882e-05
*RES
1 i_wb_addr[31] *30:5 1.924 
2 *30:5 *545:I 9.936 
3 *30:5 *187:I 11.288 
*END

*D_NET *31 0.0055256
*CONN
*P i_wb_addr[3] I
*I *188:I I *D gf180mcu_fd_sc_mcu7t5v0__antenna
*I *546:I I *D gf180mcu_fd_sc_mcu7t5v0__buf_1
*CAP
1 i_wb_addr[3] 0.000931894
2 *188:I 0.000448048
3 *546:I 0
4 *31:11 0.00137994
5 *188:I o_wb_data[2] 6.97161e-05
6 *188:I *484:A4 1.60428e-05
7 *188:I *143:16 0.00154999
8 *31:11 o_wb_data[19] 0.000123793
9 *31:11 *482:A1 0.000288736
10 *31:11 *505:A1 1.40331e-05
11 *31:11 *35:7 0.000122765
12 *31:11 *128:24 0.000580644
*RES
1 i_wb_addr[3] *31:11 18.1 
2 *31:11 *546:I 4.5 
3 *31:11 *188:I 9.284 
*END

*D_NET *32 0.00511912
*CONN
*P i_wb_addr[4] I
*I *547:I I *D gf180mcu_fd_sc_mcu7t5v0__clkbuf_1
*I *189:I I *D gf180mcu_fd_sc_mcu7t5v0__antenna
*CAP
1 i_wb_addr[4] 0.000834138
2 *547:I 0
3 *189:I 0.00092031
4 *32:11 0.00175445
5 *189:I o_wb_data[27] 0.000103788
6 *189:I o_wb_data[31] 1.23478e-05
7 *189:I *128:24 8.73326e-06