*SPEF "ieee 1481-1999"
*DESIGN "wb_buttons_leds"
*DATE "11:11:11 Fri 11 11, 1111"
*VENDOR "OpenRCX"
*PROGRAM "Parallel Extraction"
*VERSION "1.0"
*DESIGN_FLOW "NAME_SCOPE LOCAL" "PIN_CAP NONE"
*DIVIDER /
*DELIMITER :
*BUS_DELIMITER []
*T_UNIT 1 NS
*C_UNIT 1 PF
*R_UNIT 1 OHM
*L_UNIT 1 HENRY

*NAME_MAP
*1 buttons[0]
*2 buttons[1]
*3 net85
*4 net49
*5 clk
*6 clk2
*7 i_wb_addr[0]
*8 i_wb_addr[10]
*9 i_wb_addr[11]
*10 i_wb_addr[12]
*11 i_wb_addr[13]
*12 i_wb_addr[14]
*13 i_wb_addr[15]
*14 i_wb_addr[16]
*15 i_wb_addr[17]
*16 i_wb_addr[18]
*17 i_wb_addr[19]
*18 i_wb_addr[1]
*19 i_wb_addr[20]
*20 i_wb_addr[21]
*21 i_wb_addr[22]
*22 i_wb_addr[23]
*23 i_wb_addr[24]
*24 i_wb_addr[25]
*25 i_wb_addr[26]
*26 i_wb_addr[27]
*27 i_wb_addr[28]
*28 i_wb_addr[29]
*29 i_wb_addr[2]
*30 i_wb_addr[30]
*31 i_wb_addr[31]
*32 i_wb_addr[3]
*33 i_wb_addr[4]
*34 i_wb_addr[5]
*35 i_wb_addr[6]
*36 i_wb_addr[7]
*37 i_wb_addr[8]
*38 i_wb_addr[9]
*39 i_wb_cyc
*40 i_wb_data[0]
*41 i_wb_data[1]
*42 i_wb_stb
*43 i_wb_we
*44 net50
*45 net51
*46 leds[0]
*47 leds[1]
*48 o_wb_ack
*49 o_wb_data[0]
*50 net60
*51 net61
*52 net62
*53 net63
*54 net64
*55 net65
*56 net66
*57 net67
*58 net68
*59 net69
*60 o_wb_data[1]
*61 net70
*62 net71
*63 net72
*64 net73
*65 net74
*66 net75
*67 net76
*68 net77
*69 net78
*70 net79
*71 net52
*72 net80
*73 net81
*74 net53
*75 net54
*76 net55
*77 net56
*78 net57
*79 net58
*80 net59
*81 net82
*82 reset
*85 net83
*86 net84
*87 xtal_clk_enb[0]
*88 xtal_clk_enb[1]
*89 _000_
*90 _001_
*91 _002_
*92 _003_
*93 _004_
*94 _005_
*95 _006_
*96 _007_
*97 _008_
*98 _009_
*99 _010_
*100 _011_
*101 _012_
*102 _013_
*103 _014_
*104 _015_
*105 _016_
*106 _017_
*107 _018_
*108 _019_
*109 _020_
*110 _021_
*111 _022_
*112 _023_
*113 _024_
*114 _025_
*115 _026_
*116 _027_
*117 _028_
*118 _029_
*119 _030_
*120 _031_
*121 _032_
*122 _033_
*123 _034_
*124 _035_
*125 _036_
*126 _037_
*127 _038_
*128 _039_
*129 _040_
*130 _041_
*131 clknet_0_clk
*132 clknet_1_0__leaf_clk
*133 clknet_1_1__leaf_clk
*134 net1
*135 net10
*136 net11
*137 net12
*138 net13
*139 net14
*140 net15
*141 net16
*142 net17
*143 net18
*144 net19
*145 net2
*146 net20
*147 net21
*148 net22
*149 net23
*150 net24
*151 net25
*152 net26
*153 net27
*154 net28
*155 net29
*156 net3
*157 net30
*158 net31
*159 net32
*160 net33
*161 net34
*162 net35
*163 net36
*164 net37
*165 net38
*166 net39
*167 net4
*168 net40
*169 net41
*170 net42
*171 net43
*172 net44
*173 net45
*174 net46
*175 net47
*176 net48
*177 net5
*178 net6
*179 net7
*180 net8
*181 net9
*182 ANTENNA__045__I
*183 ANTENNA__046__I
*184 ANTENNA__047__I
*185 ANTENNA__061__A3
*186 ANTENNA__063__A3
*187 ANTENNA__065__A2
*188 ANTENNA__070__A1
*189 ANTENNA__072__B
*190 ANTENNA__075__A1
*191 ANTENNA__076__B
*192 ANTENNA__079__A2
*193 ANTENNA__080__A1
*194 ANTENNA__080__B
*195 ANTENNA__082__A1
*196 ANTENNA__082__B
*197 ANTENNA__089__CLK
*198 ANTENNA__089__D
*199 ANTENNA__090__D
*200 ANTENNA_clkbuf_0_clk_I
*201 ANTENNA_input10_I
*202 ANTENNA_input11_I
*203 ANTENNA_input12_I
*204 ANTENNA_input13_I
*205 ANTENNA_input14_I
*206 ANTENNA_input15_I
*207 ANTENNA_input16_I
*208 ANTENNA_input17_I
*209 ANTENNA_input18_I
*210 ANTENNA_input19_I
*211 ANTENNA_input1_I
*212 ANTENNA_input20_I
*213 ANTENNA_input21_I
*214 ANTENNA_input22_I
*215 ANTENNA_input23_I
*216 ANTENNA_input24_I
*217 ANTENNA_input25_I
*218 ANTENNA_input26_I
*219 ANTENNA_input27_I
*220 ANTENNA_input28_I
*221 ANTENNA_input29_I
*222 ANTENNA_input2_I
*223 ANTENNA_input30_I
*224 ANTENNA_input31_I
*225 ANTENNA_input32_I
*226 ANTENNA_input33_I
*227 ANTENNA_input34_I
*228 ANTENNA_input35_I
*229 ANTENNA_input36_I
*230 ANTENNA_input37_I
*231 ANTENNA_input38_I
*232 ANTENNA_input39_I
*233 ANTENNA_input3_I
*234 ANTENNA_input40_I
*235 ANTENNA_input41_I
*236 ANTENNA_input4_I
*237 ANTENNA_input5_I
*238 ANTENNA_input6_I
*239 ANTENNA_input7_I
*240 ANTENNA_input8_I
*241 ANTENNA_input9_I
*242 ANTENNA_output42_I
*243 ANTENNA_output43_I
*244 ANTENNA_output47_I
*245 ANTENNA_output48_I
*246 FILLER_0_0_12
*247 FILLER_0_0_138
*248 FILLER_0_0_145
*249 FILLER_0_0_153
*250 FILLER_0_0_161
*251 FILLER_0_0_169
*252 FILLER_0_0_178
*253 FILLER_0_0_185
*254 FILLER_0_0_193
*255 FILLER_0_0_201
*256 FILLER_0_0_203
*257 FILLER_0_0_218
*258 FILLER_0_0_225
*259 FILLER_0_0_233
*260 FILLER_0_0_237
*261 FILLER_0_0_258
*262 FILLER_0_0_265
*263 FILLER_0_0_314
*264 FILLER_0_0_321
*265 FILLER_0_0_329
*266 FILLER_0_0_36
*267 FILLER_0_10_101
*268 FILLER_0_10_107
*269 FILLER_0_10_171
*270 FILLER_0_10_177
*271 FILLER_0_10_22
*272 FILLER_0_10_241
*273 FILLER_0_10_247
*274 FILLER_0_10_30
*275 FILLER_0_10_311
*276 FILLER_0_10_317
*277 FILLER_0_10_325
*278 FILLER_0_10_329
*279 FILLER_0_10_34
*280 FILLER_0_10_37
*281 FILLER_0_10_6
*282 FILLER_0_11_136
*283 FILLER_0_11_142
*284 FILLER_0_11_2
*285 FILLER_0_11_206
*286 FILLER_0_11_212
*287 FILLER_0_11_276
*288 FILLER_0_11_282
*289 FILLER_0_11_314
*290 FILLER_0_11_330
*291 FILLER_0_11_66
*292 FILLER_0_11_72
*293 FILLER_0_12_101
*294 FILLER_0_12_107
*295 FILLER_0_12_171
*296 FILLER_0_12_177
*297 FILLER_0_12_22
*298 FILLER_0_12_241
*299 FILLER_0_12_247
*300 FILLER_0_12_30
*301 FILLER_0_12_311
*302 FILLER_0_12_317
*303 FILLER_0_12_325
*304 FILLER_0_12_329
*305 FILLER_0_12_34
*306 FILLER_0_12_37
*307 FILLER_0_12_6
*308 FILLER_0_13_136
*309 FILLER_0_13_142
*310 FILLER_0_13_206
*311 FILLER_0_13_212
*312 FILLER_0_13_276
*313 FILLER_0_13_282
*314 FILLER_0_13_314
*315 FILLER_0_13_330
*316 FILLER_0_13_6
*317 FILLER_0_13_72
*318 FILLER_0_14_101
*319 FILLER_0_14_107
*320 FILLER_0_14_171
*321 FILLER_0_14_177
*322 FILLER_0_14_2
*323 FILLER_0_14_241
*324 FILLER_0_14_247
*325 FILLER_0_14_311
*326 FILLER_0_14_317
*327 FILLER_0_14_325
*328 FILLER_0_14_329
*329 FILLER_0_14_34
*330 FILLER_0_14_37
*331 FILLER_0_15_136
*332 FILLER_0_15_142
*333 FILLER_0_15_206
*334 FILLER_0_15_212
*335 FILLER_0_15_276
*336 FILLER_0_15_282
*337 FILLER_0_15_314
*338 FILLER_0_15_330
*339 FILLER_0_15_6
*340 FILLER_0_15_72
*341 FILLER_0_16_101
*342 FILLER_0_16_107
*343 FILLER_0_16_171
*344 FILLER_0_16_177
*345 FILLER_0_16_2
*346 FILLER_0_16_241
*347 FILLER_0_16_247
*348 FILLER_0_16_311
*349 FILLER_0_16_317
*350 FILLER_0_16_325
*351 FILLER_0_16_329
*352 FILLER_0_16_34
*353 FILLER_0_16_37
*354 FILLER_0_17_136
*355 FILLER_0_17_142
*356 FILLER_0_17_206
*357 FILLER_0_17_212
*358 FILLER_0_17_276
*359 FILLER_0_17_282
*360 FILLER_0_17_314
*361 FILLER_0_17_330
*362 FILLER_0_17_6
*363 FILLER_0_17_72
*364 FILLER_0_18_101
*365 FILLER_0_18_107
*366 FILLER_0_18_171
*367 FILLER_0_18_177
*368 FILLER_0_18_22
*369 FILLER_0_18_241
*370 FILLER_0_18_247
*371 FILLER_0_18_30
*372 FILLER_0_18_311
*373 FILLER_0_18_317
*374 FILLER_0_18_325
*375 FILLER_0_18_329
*376 FILLER_0_18_34
*377 FILLER_0_18_37
*378 FILLER_0_18_6
*379 FILLER_0_19_136
*380 FILLER_0_19_142
*381 FILLER_0_19_2
*382 FILLER_0_19_206
*383 FILLER_0_19_212
*384 FILLER_0_19_276
*385 FILLER_0_19_282
*386 FILLER_0_19_314
*387 FILLER_0_19_330
*388 FILLER_0_19_66
*389 FILLER_0_19_72
*390 FILLER_0_1_127
*391 FILLER_0_1_129
*392 FILLER_0_1_136
*393 FILLER_0_1_148
*394 FILLER_0_1_186
*395 FILLER_0_1_188
*396 FILLER_0_1_205
*397 FILLER_0_1_209
*398 FILLER_0_1_249
*399 FILLER_0_1_253
*400 FILLER_0_1_257
*401 FILLER_0_1_261
*402 FILLER_0_1_269
*403 FILLER_0_1_271
*404 FILLER_0_1_274
*405 FILLER_0_1_306
*406 FILLER_0_1_31
*407 FILLER_0_1_310
*408 FILLER_0_1_312
*409 FILLER_0_1_315
*410 FILLER_0_1_319
*411 FILLER_0_1_323
*412 FILLER_0_1_46
*413 FILLER_0_20_101
*414 FILLER_0_20_107
*415 FILLER_0_20_171
*416 FILLER_0_20_177
*417 FILLER_0_20_22
*418 FILLER_0_20_241
*419 FILLER_0_20_247
*420 FILLER_0_20_30
*421 FILLER_0_20_311
*422 FILLER_0_20_317
*423 FILLER_0_20_325
*424 FILLER_0_20_34
*425 FILLER_0_20_37
*426 FILLER_0_20_6
*427 FILLER_0_21_136
*428 FILLER_0_21_142
*429 FILLER_0_21_2
*430 FILLER_0_21_206
*431 FILLER_0_21_212
*432 FILLER_0_21_276
*433 FILLER_0_21_282
*434 FILLER_0_21_314
*435 FILLER_0_21_330
*436 FILLER_0_21_66
*437 FILLER_0_21_72
*438 FILLER_0_22_101
*439 FILLER_0_22_107
*440 FILLER_0_22_171
*441 FILLER_0_22_177
*442 FILLER_0_22_22
*443 FILLER_0_22_241
*444 FILLER_0_22_247
*445 FILLER_0_22_30
*446 FILLER_0_22_311
*447 FILLER_0_22_317
*448 FILLER_0_22_325
*449 FILLER_0_22_329
*450 FILLER_0_22_34
*451 FILLER_0_22_37
*452 FILLER_0_22_6
*453 FILLER_0_23_136
*454 FILLER_0_23_142
*455 FILLER_0_23_2
*456 FILLER_0_23_206
*457 FILLER_0_23_212
*458 FILLER_0_23_276
*459 FILLER_0_23_282
*460 FILLER_0_23_314
*461 FILLER_0_23_330
*462 FILLER_0_23_66
*463 FILLER_0_23_72
*464 FILLER_0_24_101
*465 FILLER_0_24_107
*466 FILLER_0_24_171
*467 FILLER_0_24_177
*468 FILLER_0_24_22
*469 FILLER_0_24_241
*470 FILLER_0_24_247
*471 FILLER_0_24_30
*472 FILLER_0_24_311
*473 FILLER_0_24_317
*474 FILLER_0_24_325
*475 FILLER_0_24_329
*476 FILLER_0_24_34
*477 FILLER_0_24_37
*478 FILLER_0_24_6
*479 FILLER_0_25_136
*480 FILLER_0_25_142
*481 FILLER_0_25_206
*482 FILLER_0_25_212
*483 FILLER_0_25_276
*484 FILLER_0_25_282
*485 FILLER_0_25_314
*486 FILLER_0_25_330
*487 FILLER_0_25_6
*488 FILLER_0_25_72
*489 FILLER_0_26_101
*490 FILLER_0_26_107
*491 FILLER_0_26_171
*492 FILLER_0_26_177
*493 FILLER_0_26_2
*494 FILLER_0_26_241
*495 FILLER_0_26_247
*496 FILLER_0_26_311
*497 FILLER_0_26_317
*498 FILLER_0_26_325
*499 FILLER_0_26_329
*500 FILLER_0_26_34
*501 FILLER_0_26_37
*502 FILLER_0_27_136
*503 FILLER_0_27_142
*504 FILLER_0_27_206
*505 FILLER_0_27_212
*506 FILLER_0_27_276
*507 FILLER_0_27_282
*508 FILLER_0_27_314
*509 FILLER_0_27_330
*510 FILLER_0_27_6
*511 FILLER_0_27_72
*512 FILLER_0_28_101
*513 FILLER_0_28_107
*514 FILLER_0_28_171
*515 FILLER_0_28_177
*516 FILLER_0_28_2
*517 FILLER_0_28_241
*518 FILLER_0_28_247
*519 FILLER_0_28_311
*520 FILLER_0_28_317
*521 FILLER_0_28_325
*522 FILLER_0_28_329
*523 FILLER_0_28_34
*524 FILLER_0_28_37
*525 FILLER_0_29_136
*526 FILLER_0_29_142
*527 FILLER_0_29_206
*528 FILLER_0_29_212
*529 FILLER_0_29_276
*530 FILLER_0_29_282
*531 FILLER_0_29_314
*532 FILLER_0_29_330
*533 FILLER_0_29_6
*534 FILLER_0_29_72
*535 FILLER_0_2_102
*536 FILLER_0_2_104
*537 FILLER_0_2_107
*538 FILLER_0_2_152
*539 FILLER_0_2_156
*540 FILLER_0_2_16
*541 FILLER_0_2_160
*542 FILLER_0_2_163
*543 FILLER_0_2_167
*544 FILLER_0_2_169
*545 FILLER_0_2_172
*546 FILLER_0_2_174
*547 FILLER_0_2_177
*548 FILLER_0_2_181
*549 FILLER_0_2_222
*550 FILLER_0_2_226
*551 FILLER_0_2_230
*552 FILLER_0_2_240
*553 FILLER_0_2_244
*554 FILLER_0_2_247
*555 FILLER_0_2_255
*556 FILLER_0_2_293
*557 FILLER_0_2_297
*558 FILLER_0_2_301
*559 FILLER_0_2_309
*560 FILLER_0_2_313
*561 FILLER_0_2_317
*562 FILLER_0_2_325
*563 FILLER_0_2_329
*564 FILLER_0_2_37
*565 FILLER_0_30_101
*566 FILLER_0_30_107
*567 FILLER_0_30_171
*568 FILLER_0_30_177
*569 FILLER_0_30_22
*570 FILLER_0_30_241
*571 FILLER_0_30_247
*572 FILLER_0_30_30
*573 FILLER_0_30_311
*574 FILLER_0_30_317
*575 FILLER_0_30_325
*576 FILLER_0_30_329
*577 FILLER_0_30_34
*578 FILLER_0_30_37
*579 FILLER_0_30_6
*580 FILLER_0_31_136
*581 FILLER_0_31_142
*582 FILLER_0_31_2
*583 FILLER_0_31_206
*584 FILLER_0_31_212
*585 FILLER_0_31_276
*586 FILLER_0_31_282
*587 FILLER_0_31_314
*588 FILLER_0_31_330
*589 FILLER_0_31_66
*590 FILLER_0_31_72
*591 FILLER_0_32_101
*592 FILLER_0_32_107
*593 FILLER_0_32_171
*594 FILLER_0_32_177
*595 FILLER_0_32_22
*596 FILLER_0_32_241
*597 FILLER_0_32_247
*598 FILLER_0_32_30
*599 FILLER_0_32_311
*600 FILLER_0_32_317
*601 FILLER_0_32_325
*602 FILLER_0_32_329
*603 FILLER_0_32_34
*604 FILLER_0_32_37
*605 FILLER_0_32_6
*606 FILLER_0_33_136
*607 FILLER_0_33_142
*608 FILLER_0_33_2
*609 FILLER_0_33_206
*610 FILLER_0_33_212
*611 FILLER_0_33_276
*612 FILLER_0_33_282
*613 FILLER_0_33_314
*614 FILLER_0_33_330
*615 FILLER_0_33_66
*616 FILLER_0_33_72
*617 FILLER_0_34_101
*618 FILLER_0_34_107
*619 FILLER_0_34_171
*620 FILLER_0_34_177
*621 FILLER_0_34_22
*622 FILLER_0_34_241
*623 FILLER_0_34_247
*624 FILLER_0_34_30
*625 FILLER_0_34_311
*626 FILLER_0_34_317
*627 FILLER_0_34_325
*628 FILLER_0_34_329
*629 FILLER_0_34_34
*630 FILLER_0_34_37
*631 FILLER_0_34_6
*632 FILLER_0_35_136
*633 FILLER_0_35_142
*634 FILLER_0_35_2
*635 FILLER_0_35_206
*636 FILLER_0_35_212
*637 FILLER_0_35_276
*638 FILLER_0_35_282
*639 FILLER_0_35_314
*640 FILLER_0_35_330
*641 FILLER_0_35_66
*642 FILLER_0_35_72
*643 FILLER_0_36_101
*644 FILLER_0_36_107
*645 FILLER_0_36_171
*646 FILLER_0_36_177
*647 FILLER_0_36_22
*648 FILLER_0_36_241
*649 FILLER_0_36_247
*650 FILLER_0_36_30
*651 FILLER_0_36_311
*652 FILLER_0_36_317
*653 FILLER_0_36_321
*654 FILLER_0_36_34
*655 FILLER_0_36_37
*656 FILLER_0_36_6
*657 FILLER_0_37_136
*658 FILLER_0_37_142
*659 FILLER_0_37_206
*660 FILLER_0_37_212
*661 FILLER_0_37_276
*662 FILLER_0_37_282
*663 FILLER_0_37_314
*664 FILLER_0_37_330
*665 FILLER_0_37_6
*666 FILLER_0_37_72
*667 FILLER_0_38_101
*668 FILLER_0_38_107
*669 FILLER_0_38_171
*670 FILLER_0_38_177
*671 FILLER_0_38_2
*672 FILLER_0_38_241
*673 FILLER_0_38_247
*674 FILLER_0_38_311
*675 FILLER_0_38_317
*676 FILLER_0_38_325
*677 FILLER_0_38_329
*678 FILLER_0_38_34
*679 FILLER_0_38_37
*680 FILLER_0_39_136
*681 FILLER_0_39_142
*682 FILLER_0_39_206
*683 FILLER_0_39_212
*684 FILLER_0_39_276
*685 FILLER_0_39_282
*686 FILLER_0_39_314
*687 FILLER_0_39_330
*688 FILLER_0_39_6
*689 FILLER_0_39_72
*690 FILLER_0_3_122
*691 FILLER_0_3_126
*692 FILLER_0_3_130
*693 FILLER_0_3_134
*694 FILLER_0_3_136
*695 FILLER_0_3_139
*696 FILLER_0_3_142
*697 FILLER_0_3_146
*698 FILLER_0_3_150
*699 FILLER_0_3_166
*700 FILLER_0_3_170
*701 FILLER_0_3_172
*702 FILLER_0_3_175
*703 FILLER_0_3_191
*704 FILLER_0_3_199
*705 FILLER_0_3_2
*706 FILLER_0_3_203
*707 FILLER_0_3_206
*708 FILLER_0_3_212
*709 FILLER_0_3_276
*710 FILLER_0_3_282
*711 FILLER_0_3_314
*712 FILLER_0_3_330
*713 FILLER_0_3_39
*714 FILLER_0_40_101
*715 FILLER_0_40_107
*716 FILLER_0_40_171
*717 FILLER_0_40_177
*718 FILLER_0_40_2
*719 FILLER_0_40_241
*720 FILLER_0_40_247
*721 FILLER_0_40_311
*722 FILLER_0_40_317
*723 FILLER_0_40_325
*724 FILLER_0_40_329
*725 FILLER_0_40_34
*726 FILLER_0_40_37
*727 FILLER_0_41_136
*728 FILLER_0_41_142
*729 FILLER_0_41_206
*730 FILLER_0_41_212
*731 FILLER_0_41_276
*732 FILLER_0_41_282
*733 FILLER_0_41_314
*734 FILLER_0_41_330
*735 FILLER_0_41_6
*736 FILLER_0_41_72
*737 FILLER_0_42_101
*738 FILLER_0_42_107
*739 FILLER_0_42_171
*740 FILLER_0_42_177
*741 FILLER_0_42_22
*742 FILLER_0_42_241
*743 FILLER_0_42_247
*744 FILLER_0_42_30
*745 FILLER_0_42_311
*746 FILLER_0_42_317
*747 FILLER_0_42_325
*748 FILLER_0_42_329
*749 FILLER_0_42_34
*750 FILLER_0_42_37
*751 FILLER_0_42_6
*752 FILLER_0_43_136
*753 FILLER_0_43_142
*754 FILLER_0_43_2
*755 FILLER_0_43_206
*756 FILLER_0_43_212
*757 FILLER_0_43_276
*758 FILLER_0_43_282
*759 FILLER_0_43_314
*760 FILLER_0_43_330
*761 FILLER_0_43_66
*762 FILLER_0_43_72
*763 FILLER_0_44_101
*764 FILLER_0_44_107
*765 FILLER_0_44_171
*766 FILLER_0_44_177
*767 FILLER_0_44_22
*768 FILLER_0_44_241
*769 FILLER_0_44_247
*770 FILLER_0_44_30
*771 FILLER_0_44_311
*772 FILLER_0_44_317
*773 FILLER_0_44_325
*774 FILLER_0_44_329
*775 FILLER_0_44_34
*776 FILLER_0_44_37
*777 FILLER_0_44_6
*778 FILLER_0_45_136
*779 FILLER_0_45_142
*780 FILLER_0_45_2
*781 FILLER_0_45_206
*782 FILLER_0_45_212
*783 FILLER_0_45_276
*784 FILLER_0_45_282
*785 FILLER_0_45_314
*786 FILLER_0_45_330
*787 FILLER_0_45_66
*788 FILLER_0_45_72
*789 FILLER_0_46_101
*790 FILLER_0_46_107
*791 FILLER_0_46_171
*792 FILLER_0_46_177
*793 FILLER_0_46_22
*794 FILLER_0_46_241
*795 FILLER_0_46_247
*796 FILLER_0_46_30
*797 FILLER_0_46_311
*798 FILLER_0_46_317
*799 FILLER_0_46_325
*800 FILLER_0_46_329
*801 FILLER_0_46_34
*802 FILLER_0_46_37
*803 FILLER_0_46_6
*804 FILLER_0_47_136
*805 FILLER_0_47_142
*806 FILLER_0_47_2
*807 FILLER_0_47_206
*808 FILLER_0_47_212
*809 FILLER_0_47_276
*810 FILLER_0_47_282
*811 FILLER_0_47_314
*812 FILLER_0_47_330
*813 FILLER_0_47_66
*814 FILLER_0_47_72
*815 FILLER_0_48_101
*816 FILLER_0_48_107
*817 FILLER_0_48_171
*818 FILLER_0_48_177
*819 FILLER_0_48_22
*820 FILLER_0_48_241
*821 FILLER_0_48_247
*822 FILLER_0_48_30
*823 FILLER_0_48_311
*824 FILLER_0_48_317
*825 FILLER_0_48_325
*826 FILLER_0_48_329
*827 FILLER_0_48_34
*828 FILLER_0_48_37
*829 FILLER_0_48_6
*830 FILLER_0_49_136
*831 FILLER_0_49_142
*832 FILLER_0_49_206
*833 FILLER_0_49_212
*834 FILLER_0_49_276
*835 FILLER_0_49_282
*836 FILLER_0_49_314
*837 FILLER_0_49_330
*838 FILLER_0_49_6
*839 FILLER_0_49_72
*840 FILLER_0_4_101
*841 FILLER_0_4_173
*842 FILLER_0_4_177
*843 FILLER_0_4_181
*844 FILLER_0_4_2
*845 FILLER_0_4_247
*846 FILLER_0_4_311
*847 FILLER_0_4_317
*848 FILLER_0_4_32
*849 FILLER_0_4_321
*850 FILLER_0_4_34
*851 FILLER_0_4_55
*852 FILLER_0_50_101
*853 FILLER_0_50_107
*854 FILLER_0_50_171
*855 FILLER_0_50_177
*856 FILLER_0_50_2
*857 FILLER_0_50_241
*858 FILLER_0_50_247
*859 FILLER_0_50_311
*860 FILLER_0_50_317
*861 FILLER_0_50_325
*862 FILLER_0_50_329
*863 FILLER_0_50_34
*864 FILLER_0_50_37
*865 FILLER_0_51_136
*866 FILLER_0_51_142
*867 FILLER_0_51_206
*868 FILLER_0_51_212
*869 FILLER_0_51_276
*870 FILLER_0_51_282
*871 FILLER_0_51_314
*872 FILLER_0_51_322
*873 FILLER_0_51_326
*874 FILLER_0_51_6
*875 FILLER_0_51_72
*876 FILLER_0_52_101
*877 FILLER_0_52_107
*878 FILLER_0_52_171
*879 FILLER_0_52_177
*880 FILLER_0_52_2
*881 FILLER_0_52_241
*882 FILLER_0_52_247
*883 FILLER_0_52_311
*884 FILLER_0_52_317
*885 FILLER_0_52_325
*886 FILLER_0_52_329
*887 FILLER_0_52_34
*888 FILLER_0_52_37
*889 FILLER_0_53_10
*890 FILLER_0_53_136
*891 FILLER_0_53_14
*892 FILLER_0_53_142
*893 FILLER_0_53_206
*894 FILLER_0_53_212
*895 FILLER_0_53_276
*896 FILLER_0_53_282
*897 FILLER_0_53_314
*898 FILLER_0_53_330
*899 FILLER_0_53_46
*900 FILLER_0_53_62
*901 FILLER_0_53_72
*902 FILLER_0_54_118
*903 FILLER_0_54_122
*904 FILLER_0_54_130
*905 FILLER_0_54_134
*906 FILLER_0_54_138
*907 FILLER_0_54_142
*908 FILLER_0_54_144
*909 FILLER_0_54_149
*910 FILLER_0_54_165
*911 FILLER_0_54_169
*912 FILLER_0_54_172
*913 FILLER_0_54_188
*914 FILLER_0_54_193
*915 FILLER_0_54_2
*916 FILLER_0_54_201
*917 FILLER_0_54_203
*918 FILLER_0_54_206
*919 FILLER_0_54_222
*920 FILLER_0_54_23
*921 FILLER_0_54_230
*922 FILLER_0_54_234
*923 FILLER_0_54_250
*924 FILLER_0_54_266
*925 FILLER_0_54_270
*926 FILLER_0_54_274
*927 FILLER_0_54_276
*928 FILLER_0_54_281
*929 FILLER_0_54_297
*930 FILLER_0_54_305
*931 FILLER_0_54_308
*932 FILLER_0_54_31
*933 FILLER_0_54_316
*934 FILLER_0_54_318
*935 FILLER_0_54_33
*936 FILLER_0_54_36
*937 FILLER_0_54_4
*938 FILLER_0_54_52
*939 FILLER_0_54_56
*940 FILLER_0_54_61
*941 FILLER_0_54_65
*942 FILLER_0_54_67
*943 FILLER_0_54_70
*944 FILLER_0_5_113
*945 FILLER_0_5_117
*946 FILLER_0_5_121
*947 FILLER_0_5_125
*948 FILLER_0_5_129
*949 FILLER_0_5_137
*950 FILLER_0_5_139
*951 FILLER_0_5_142
*952 FILLER_0_5_16
*953 FILLER_0_5_18
*954 FILLER_0_5_206
*955 FILLER_0_5_21
*956 FILLER_0_5_212
*957 FILLER_0_5_276
*958 FILLER_0_5_282
*959 FILLER_0_5_314
*960 FILLER_0_5_330
*961 FILLER_0_5_62
*962 FILLER_0_5_64
*963 FILLER_0_5_72
*964 FILLER_0_6_138
*965 FILLER_0_6_16
*966 FILLER_0_6_170
*967 FILLER_0_6_174
*968 FILLER_0_6_177
*969 FILLER_0_6_20
*970 FILLER_0_6_24
*971 FILLER_0_6_241
*972 FILLER_0_6_247
*973 FILLER_0_6_30
*974 FILLER_0_6_311
*975 FILLER_0_6_317
*976 FILLER_0_6_32
*977 FILLER_0_6_325
*978 FILLER_0_6_329
*979 FILLER_0_6_42
*980 FILLER_0_6_44
*981 FILLER_0_6_47
*982 FILLER_0_6_51
*983 FILLER_0_6_6
*984 FILLER_0_6_64
*985 FILLER_0_7_136
*986 FILLER_0_7_142
*987 FILLER_0_7_2
*988 FILLER_0_7_206
*989 FILLER_0_7_212
*990 FILLER_0_7_276
*991 FILLER_0_7_282
*992 FILLER_0_7_314
*993 FILLER_0_7_330
*994 FILLER_0_7_34
*995 FILLER_0_7_42
*996 FILLER_0_7_46
*997 FILLER_0_7_56
*998 FILLER_0_7_60
*999 FILLER_0_7_64
*1000 FILLER_0_7_68
*1001 FILLER_0_7_72
*1002 FILLER_0_7_76
*1003 FILLER_0_8_107
*1004 FILLER_0_8_111
*1005 FILLER_0_8_177
*1006 FILLER_0_8_22
*1007 FILLER_0_8_241
*1008 FILLER_0_8_247
*1009 FILLER_0_8_30
*1010 FILLER_0_8_311
*1011 FILLER_0_8_317
*1012 FILLER_0_8_325
*1013 FILLER_0_8_329
*1014 FILLER_0_8_34
*1015 FILLER_0_8_37
*1016 FILLER_0_8_53
*1017 FILLER_0_8_59
*1018 FILLER_0_8_6
*1019 FILLER_0_8_63
*1020 FILLER_0_8_71
*1021 FILLER_0_8_73
*1022 FILLER_0_9_101
*1023 FILLER_0_9_105
*1024 FILLER_0_9_109
*1025 FILLER_0_9_125
*1026 FILLER_0_9_133
*1027 FILLER_0_9_137
*1028 FILLER_0_9_139
*1029 FILLER_0_9_142
*1030 FILLER_0_9_2
*1031 FILLER_0_9_206
*1032 FILLER_0_9_212
*1033 FILLER_0_9_276
*1034 FILLER_0_9_282
*1035 FILLER_0_9_314
*1036 FILLER_0_9_330
*1037 FILLER_0_9_66
*1038 FILLER_0_9_72
*1039 FILLER_0_9_88
*1040 FILLER_0_9_92
*1041 PHY_EDGE_ROW_0_Left_55
*1042 PHY_EDGE_ROW_0_Right_0
*1043 PHY_EDGE_ROW_10_Left_65
*1044 PHY_EDGE_ROW_10_Right_10
*1045 PHY_EDGE_ROW_11_Left_66
*1046 PHY_EDGE_ROW_11_Right_11
*1047 PHY_EDGE_ROW_12_Left_67
*1048 PHY_EDGE_ROW_12_Right_12
*1049 PHY_EDGE_ROW_13_Left_68
*1050 PHY_EDGE_ROW_13_Right_13
*1051 PHY_EDGE_ROW_14_Left_69
*1052 PHY_EDGE_ROW_14_Right_14
*1053 PHY_EDGE_ROW_15_Left_70
*1054 PHY_EDGE_ROW_15_Right_15
*1055 PHY_EDGE_ROW_16_Left_71
*1056 PHY_EDGE_ROW_16_Right_16
*1057 PHY_EDGE_ROW_17_Left_72
*1058 PHY_EDGE_ROW_17_Right_17
*1059 PHY_EDGE_ROW_18_Left_73
*1060 PHY_EDGE_ROW_18_Right_18
*1061 PHY_EDGE_ROW_19_Left_74
*1062 PHY_EDGE_ROW_19_Right_19
*1063 PHY_EDGE_ROW_1_Left_56
*1064 PHY_EDGE_ROW_1_Right_1
*1065 PHY_EDGE_ROW_20_Left_75
*1066 PHY_EDGE_ROW_20_Right_20
*1067 PHY_EDGE_ROW_21_Left_76
*1068 PHY_EDGE_ROW_21_Right_21
*1069 PHY_EDGE_ROW_22_Left_77
*1070 PHY_EDGE_ROW_22_Right_22
*1071 PHY_EDGE_ROW_23_Left_78
*1072 PHY_EDGE_ROW_23_Right_23
*1073 PHY_EDGE_ROW_24_Left_79
*1074 PHY_EDGE_ROW_24_Right_24
*1075 PHY_EDGE_ROW_25_Left_80
*1076 PHY_EDGE_ROW_25_Right_25
*1077 PHY_EDGE_ROW_26_Left_81
*1078 PHY_EDGE_ROW_26_Right_26
*1079 PHY_EDGE_ROW_27_Left_82
*1080 PHY_EDGE_ROW_27_Right_27
*1081 PHY_EDGE_ROW_28_Left_83
*1082 PHY_EDGE_ROW_28_Right_28
*1083 PHY_EDGE_ROW_29_Left_84
*1084 PHY_EDGE_ROW_29_Right_29
*1085 PHY_EDGE_ROW_2_Left_57
*1086 PHY_EDGE_ROW_2_Right_2
*1087 PHY_EDGE_ROW_30_Left_85
*1088 PHY_EDGE_ROW_30_Right_30
*1089 PHY_EDGE_ROW_31_Left_86
*1090 PHY_EDGE_ROW_31_Right_31
*1091 PHY_EDGE_ROW_32_Left_87
*1092 PHY_EDGE_ROW_32_Right_32
*1093 PHY_EDGE_ROW_33_Left_88
*1094 PHY_EDGE_ROW_33_Right_33
*1095 PHY_EDGE_ROW_34_Left_89
*1096 PHY_EDGE_ROW_34_Right_34
*1097 PHY_EDGE_ROW_35_Left_90
*1098 PHY_EDGE_ROW_35_Right_35
*1099 PHY_EDGE_ROW_36_Left_91
*1100 PHY_EDGE_ROW_36_Right_36
*1101 PHY_EDGE_ROW_37_Left_92
*1102 PHY_EDGE_ROW_37_Right_37
*1103 PHY_EDGE_ROW_38_Left_93
*1104 PHY_EDGE_ROW_38_Right_38
*1105 PHY_EDGE_ROW_39_Left_94
*1106 PHY_EDGE_ROW_39_Right_39
*1107 PHY_EDGE_ROW_3_Left_58
*1108 PHY_EDGE_ROW_3_Right_3
*1109 PHY_EDGE_ROW_40_Left_95
*1110 PHY_EDGE_ROW_40_Right_40
*1111 PHY_EDGE_ROW_41_Left_96
*1112 PHY_EDGE_ROW_41_Right_41
*1113 PHY_EDGE_ROW_42_Left_97
*1114 PHY_EDGE_ROW_42_Right_42
*1115 PHY_EDGE_ROW_43_Left_98
*1116 PHY_EDGE_ROW_43_Right_43
*1117 PHY_EDGE_ROW_44_Left_99
*1118 PHY_EDGE_ROW_44_Right_44
*1119 PHY_EDGE_ROW_45_Left_100
*1120 PHY_EDGE_ROW_45_Right_45
*1121 PHY_EDGE_ROW_46_Left_101
*1122 PHY_EDGE_ROW_46_Right_46
*1123 PHY_EDGE_ROW_47_Left_102
*1124 PHY_EDGE_ROW_47_Right_47
*1125 PHY_EDGE_ROW_48_Left_103
*1126 PHY_EDGE_ROW_48_Right_48
*1127 PHY_EDGE_ROW_49_Left_104
*1128 PHY_EDGE_ROW_49_Right_49
*1129 PHY_EDGE_ROW_4_Left_59
*1130 PHY_EDGE_ROW_4_Right_4
*1131 PHY_EDGE_ROW_50_Left_105
*1132 PHY_EDGE_ROW_50_Right_50
*1133 PHY_EDGE_ROW_51_Left_106
*1134 PHY_EDGE_ROW_51_Right_51
*1135 PHY_EDGE_ROW_52_Left_107
*1136 PHY_EDGE_ROW_52_Right_52
*1137 PHY_EDGE_ROW_53_Left_108
*1138 PHY_EDGE_ROW_53_Right_53
*1139 PHY_EDGE_ROW_54_Left_109
*1140 PHY_EDGE_ROW_54_Right_54
*1141 PHY_EDGE_ROW_5_Left_60
*1142 PHY_EDGE_ROW_5_Right_5
*1143 PHY_EDGE_ROW_6_Left_61
*1144 PHY_EDGE_ROW_6_Right_6
*1145 PHY_EDGE_ROW_7_Left_62
*1146 PHY_EDGE_ROW_7_Right_7
*1147 PHY_EDGE_ROW_8_Left_63
*1148 PHY_EDGE_ROW_8_Right_8
*1149 PHY_EDGE_ROW_9_Left_64
*1150 PHY_EDGE_ROW_9_Right_9
*1151 TAP_TAPCELL_ROW_0_110
*1152 TAP_TAPCELL_ROW_0_111
*1153 TAP_TAPCELL_ROW_0_112
*1154 TAP_TAPCELL_ROW_0_113
*1155 TAP_TAPCELL_ROW_0_114
*1156 TAP_TAPCELL_ROW_0_115
*1157 TAP_TAPCELL_ROW_0_116
*1158 TAP_TAPCELL_ROW_0_117
*1159 TAP_TAPCELL_ROW_0_118
*1160 TAP_TAPCELL_ROW_10_159
*1161 TAP_TAPCELL_ROW_10_160
*1162 TAP_TAPCELL_ROW_10_161
*1163 TAP_TAPCELL_ROW_10_162
*1164 TAP_TAPCELL_ROW_10_163
*1165 TAP_TAPCELL_ROW_11_164
*1166 TAP_TAPCELL_ROW_11_165
*1167 TAP_TAPCELL_ROW_11_166
*1168 TAP_TAPCELL_ROW_11_167
*1169 TAP_TAPCELL_ROW_12_168
*1170 TAP_TAPCELL_ROW_12_169
*1171 TAP_TAPCELL_ROW_12_170
*1172 TAP_TAPCELL_ROW_12_171
*1173 TAP_TAPCELL_ROW_12_172
*1174 TAP_TAPCELL_ROW_13_173
*1175 TAP_TAPCELL_ROW_13_174
*1176 TAP_TAPCELL_ROW_13_175
*1177 TAP_TAPCELL_ROW_13_176
*1178 TAP_TAPCELL_ROW_14_177
*1179 TAP_TAPCELL_ROW_14_178
*1180 TAP_TAPCELL_ROW_14_179
*1181 TAP_TAPCELL_ROW_14_180
*1182 TAP_TAPCELL_ROW_14_181
*1183 TAP_TAPCELL_ROW_15_182
*1184 TAP_TAPCELL_ROW_15_183
*1185 TAP_TAPCELL_ROW_15_184
*1186 TAP_TAPCELL_ROW_15_185
*1187 TAP_TAPCELL_ROW_16_186
*1188 TAP_TAPCELL_ROW_16_187
*1189 TAP_TAPCELL_ROW_16_188
*1190 TAP_TAPCELL_ROW_16_189
*1191 TAP_TAPCELL_ROW_16_190
*1192 TAP_TAPCELL_ROW_17_191
*1193 TAP_TAPCELL_ROW_17_192
*1194 TAP_TAPCELL_ROW_17_193
*1195 TAP_TAPCELL_ROW_17_194
*1196 TAP_TAPCELL_ROW_18_195
*1197 TAP_TAPCELL_ROW_18_196
*1198 TAP_TAPCELL_ROW_18_197
*1199 TAP_TAPCELL_ROW_18_198
*1200 TAP_TAPCELL_ROW_18_199
*1201 TAP_TAPCELL_ROW_19_200
*1202 TAP_TAPCELL_ROW_19_201
*1203 TAP_TAPCELL_ROW_19_202
*1204 TAP_TAPCELL_ROW_19_203
*1205 TAP_TAPCELL_ROW_1_119
*1206 TAP_TAPCELL_ROW_1_120
*1207 TAP_TAPCELL_ROW_1_121
*1208 TAP_TAPCELL_ROW_1_122
*1209 TAP_TAPCELL_ROW_20_204
*1210 TAP_TAPCELL_ROW_20_205
*1211 TAP_TAPCELL_ROW_20_206
*1212 TAP_TAPCELL_ROW_20_207
*1213 TAP_TAPCELL_ROW_20_208
*1214 TAP_TAPCELL_ROW_21_209
*1215 TAP_TAPCELL_ROW_21_210
*1216 TAP_TAPCELL_ROW_21_211
*1217 TAP_TAPCELL_ROW_21_212
*1218 TAP_TAPCELL_ROW_22_213
*1219 TAP_TAPCELL_ROW_22_214
*1220 TAP_TAPCELL_ROW_22_215
*1221 TAP_TAPCELL_ROW_22_216
*1222 TAP_TAPCELL_ROW_22_217
*1223 TAP_TAPCELL_ROW_23_218
*1224 TAP_TAPCELL_ROW_23_219
*1225 TAP_TAPCELL_ROW_23_220
*1226 TAP_TAPCELL_ROW_23_221
*1227 TAP_TAPCELL_ROW_24_222
*1228 TAP_TAPCELL_ROW_24_223
*1229 TAP_TAPCELL_ROW_24_224
*1230 TAP_TAPCELL_ROW_24_225
*1231 TAP_TAPCELL_ROW_24_226
*1232 TAP_TAPCELL_ROW_25_227
*1233 TAP_TAPCELL_ROW_25_228
*1234 TAP_TAPCELL_ROW_25_229
*1235 TAP_TAPCELL_ROW_25_230
*1236 TAP_TAPCELL_ROW_26_231
*1237 TAP_TAPCELL_ROW_26_232
*1238 TAP_TAPCELL_ROW_26_233
*1239 TAP_TAPCELL_ROW_26_234
*1240 TAP_TAPCELL_ROW_26_235
*1241 TAP_TAPCELL_ROW_27_236
*1242 TAP_TAPCELL_ROW_27_237
*1243 TAP_TAPCELL_ROW_27_238
*1244 TAP_TAPCELL_ROW_27_239
*1245 TAP_TAPCELL_ROW_28_240
*1246 TAP_TAPCELL_ROW_28_241
*1247 TAP_TAPCELL_ROW_28_242
*1248 TAP_TAPCELL_ROW_28_243
*1249 TAP_TAPCELL_ROW_28_244
*1250 TAP_TAPCELL_ROW_29_245
*1251 TAP_TAPCELL_ROW_29_246
*1252 TAP_TAPCELL_ROW_29_247
*1253 TAP_TAPCELL_ROW_29_248
*1254 TAP_TAPCELL_ROW_2_123
*1255 TAP_TAPCELL_ROW_2_124
*1256 TAP_TAPCELL_ROW_2_125
*1257 TAP_TAPCELL_ROW_2_126
*1258 TAP_TAPCELL_ROW_2_127
*1259 TAP_TAPCELL_ROW_30_249
*1260 TAP_TAPCELL_ROW_30_250
*1261 TAP_TAPCELL_ROW_30_251
*1262 TAP_TAPCELL_ROW_30_252
*1263 TAP_TAPCELL_ROW_30_253
*1264 TAP_TAPCELL_ROW_31_254
*1265 TAP_TAPCELL_ROW_31_255
*1266 TAP_TAPCELL_ROW_31_256
*1267 TAP_TAPCELL_ROW_31_257
*1268 TAP_TAPCELL_ROW_32_258
*1269 TAP_TAPCELL_ROW_32_259
*1270 TAP_TAPCELL_ROW_32_260
*1271 TAP_TAPCELL_ROW_32_261
*1272 TAP_TAPCELL_ROW_32_262
*1273 TAP_TAPCELL_ROW_33_263
*1274 TAP_TAPCELL_ROW_33_264
*1275 TAP_TAPCELL_ROW_33_265
*1276 TAP_TAPCELL_ROW_33_266
*1277 TAP_TAPCELL_ROW_34_267
*1278 TAP_TAPCELL_ROW_34_268
*1279 TAP_TAPCELL_ROW_34_269
*1280 TAP_TAPCELL_ROW_34_270
*1281 TAP_TAPCELL_ROW_34_271
*1282 TAP_TAPCELL_ROW_35_272
*1283 TAP_TAPCELL_ROW_35_273
*1284 TAP_TAPCELL_ROW_35_274
*1285 TAP_TAPCELL_ROW_35_275
*1286 TAP_TAPCELL_ROW_36_276
*1287 TAP_TAPCELL_ROW_36_277
*1288 TAP_TAPCELL_ROW_36_278
*1289 TAP_TAPCELL_ROW_36_279
*1290 TAP_TAPCELL_ROW_36_280
*1291 TAP_TAPCELL_ROW_37_281
*1292 TAP_TAPCELL_ROW_37_282
*1293 TAP_TAPCELL_ROW_37_283
*1294 TAP_TAPCELL_ROW_37_284
*1295 TAP_TAPCELL_ROW_38_285
*1296 TAP_TAPCELL_ROW_38_286
*1297 TAP_TAPCELL_ROW_38_287
*1298 TAP_TAPCELL_ROW_38_288
*1299 TAP_TAPCELL_ROW_38_289
*1300 TAP_TAPCELL_ROW_39_290
*1301 TAP_TAPCELL_ROW_39_291
*1302 TAP_TAPCELL_ROW_39_292
*1303 TAP_TAPCELL_ROW_39_293
*1304 TAP_TAPCELL_ROW_3_128
*1305 TAP_TAPCELL_ROW_3_129
*1306 TAP_TAPCELL_ROW_3_130
*1307 TAP_TAPCELL_ROW_3_131
*1308 TAP_TAPCELL_ROW_40_294
*1309 TAP_TAPCELL_ROW_40_295
*1310 TAP_TAPCELL_ROW_40_296
*1311 TAP_TAPCELL_ROW_40_297
*1312 TAP_TAPCELL_ROW_40_298
*1313 TAP_TAPCELL_ROW_41_299
*1314 TAP_TAPCELL_ROW_41_300
*1315 TAP_TAPCELL_ROW_41_301
*1316 TAP_TAPCELL_ROW_41_302
*1317 TAP_TAPCELL_ROW_42_303
*1318 TAP_TAPCELL_ROW_42_304
*1319 TAP_TAPCELL_ROW_42_305
*1320 TAP_TAPCELL_ROW_42_306
*1321 TAP_TAPCELL_ROW_42_307
*1322 TAP_TAPCELL_ROW_43_308
*1323 TAP_TAPCELL_ROW_43_309
*1324 TAP_TAPCELL_ROW_43_310
*1325 TAP_TAPCELL_ROW_43_311
*1326 TAP_TAPCELL_ROW_44_312
*1327 TAP_TAPCELL_ROW_44_313
*1328 TAP_TAPCELL_ROW_44_314
*1329 TAP_TAPCELL_ROW_44_315
*1330 TAP_TAPCELL_ROW_44_316
*1331 TAP_TAPCELL_ROW_45_317
*1332 TAP_TAPCELL_ROW_45_318
*1333 TAP_TAPCELL_ROW_45_319
*1334 TAP_TAPCELL_ROW_45_320
*1335 TAP_TAPCELL_ROW_46_321
*1336 TAP_TAPCELL_ROW_46_322
*1337 TAP_TAPCELL_ROW_46_323
*1338 TAP_TAPCELL_ROW_46_324
*1339 TAP_TAPCELL_ROW_46_325
*1340 TAP_TAPCELL_ROW_47_326
*1341 TAP_TAPCELL_ROW_47_327
*1342 TAP_TAPCELL_ROW_47_328
*1343 TAP_TAPCELL_ROW_47_329
*1344 TAP_TAPCELL_ROW_48_330
*1345 TAP_TAPCELL_ROW_48_331
*1346 TAP_TAPCELL_ROW_48_332
*1347 TAP_TAPCELL_ROW_48_333
*1348 TAP_TAPCELL_ROW_48_334
*1349 TAP_TAPCELL_ROW_49_335
*1350 TAP_TAPCELL_ROW_49_336
*1351 TAP_TAPCELL_ROW_49_337
*1352 TAP_TAPCELL_ROW_49_338
*1353 TAP_TAPCELL_ROW_4_132
*1354 TAP_TAPCELL_ROW_4_133
*1355 TAP_TAPCELL_ROW_4_134
*1356 TAP_TAPCELL_ROW_4_135
*1357 TAP_TAPCELL_ROW_4_136
*1358 TAP_TAPCELL_ROW_50_339
*1359 TAP_TAPCELL_ROW_50_340
*1360 TAP_TAPCELL_ROW_50_341
*1361 TAP_TAPCELL_ROW_50_342
*1362 TAP_TAPCELL_ROW_50_343
*1363 TAP_TAPCELL_ROW_51_344
*1364 TAP_TAPCELL_ROW_51_345
*1365 TAP_TAPCELL_ROW_51_346
*1366 TAP_TAPCELL_ROW_51_347
*1367 TAP_TAPCELL_ROW_52_348
*1368 TAP_TAPCELL_ROW_52_349
*1369 TAP_TAPCELL_ROW_52_350
*1370 TAP_TAPCELL_ROW_52_351
*1371 TAP_TAPCELL_ROW_52_352
*1372 TAP_TAPCELL_ROW_53_353
*1373 TAP_TAPCELL_ROW_53_354