*SPEF "ieee 1481-1999"
*DESIGN "wb_buttons_leds"
*DATE "11:11:11 Fri 11 11, 1111"
*VENDOR "OpenRCX"
*PROGRAM "Parallel Extraction"
*VERSION "1.0"
*DESIGN_FLOW "NAME_SCOPE LOCAL" "PIN_CAP NONE"
*DIVIDER /
*DELIMITER :
*BUS_DELIMITER []
*T_UNIT 1 NS
*C_UNIT 1 PF
*R_UNIT 1 OHM
*L_UNIT 1 HENRY

*NAME_MAP
*3 buttons[0]
*4 buttons[1]
*5 clk
*6 i_wb_addr[0]
*7 i_wb_addr[10]
*8 i_wb_addr[11]
*9 i_wb_addr[12]
*10 i_wb_addr[13]
*11 i_wb_addr[14]
*12 i_wb_addr[15]
*13 i_wb_addr[16]
*14 i_wb_addr[17]
*15 i_wb_addr[18]
*16 i_wb_addr[19]
*17 i_wb_addr[1]
*18 i_wb_addr[20]
*19 i_wb_addr[21]
*20 i_wb_addr[22]
*21 i_wb_addr[23]
*22 i_wb_addr[24]
*23 i_wb_addr[25]
*24 i_wb_addr[26]
*25 i_wb_addr[27]
*26 i_wb_addr[28]
*27 i_wb_addr[29]
*28 i_wb_addr[2]
*29 i_wb_addr[30]
*30 i_wb_addr[31]
*31 i_wb_addr[3]
*32 i_wb_addr[4]
*33 i_wb_addr[5]
*34 i_wb_addr[6]
*35 i_wb_addr[7]
*36 i_wb_addr[8]
*37 i_wb_addr[9]
*38 i_wb_cyc
*39 i_wb_data[0]
*40 i_wb_data[1]
*41 i_wb_stb
*42 i_wb_we
*43 net46
*44 net47
*45 leds[0]
*46 leds[1]
*47 o_wb_ack
*48 o_wb_data[0]
*49 net56
*50 net57
*51 net58
*52 net59
*53 net60
*54 net61
*55 net62
*56 net63
*57 net64
*58 net65
*59 o_wb_data[1]
*60 net66
*61 net67
*62 net68
*63 net69
*64 net70
*65 net71
*66 net72
*67 net73
*68 net74
*69 net75
*70 net48
*71 net76
*72 net77
*73 net49
*74 net50
*75 net51
*76 net52
*77 net53
*78 net54
*79 net55
*80 net78
*81 reset
*82 _000_
*83 _001_
*84 _002_
*85 _003_
*86 _004_
*87 _005_
*88 _006_
*89 _007_
*90 _008_
*91 _009_
*92 _010_
*93 _011_
*94 _012_
*95 _013_
*96 _014_
*97 _015_
*98 _016_
*99 _017_
*100 _018_
*101 _019_
*102 _020_
*103 _021_
*104 _022_
*105 _023_
*106 _024_
*107 _025_
*108 _026_
*109 _027_
*110 _028_
*111 _029_
*112 _030_
*113 _031_
*114 _032_
*115 _033_
*116 _034_
*117 _035_
*118 _036_
*119 _037_
*120 _038_
*121 _039_
*122 clknet_0_clk
*123 clknet_1_0__leaf_clk
*124 clknet_1_1__leaf_clk
*125 net1
*126 net10
*127 net11
*128 net12
*129 net13
*130 net14
*131 net15
*132 net16
*133 net17
*134 net18
*135 net19
*136 net2
*137 net20
*138 net21
*139 net22
*140 net23
*141 net24
*142 net25
*143 net26
*144 net27
*145 net28
*146 net29
*147 net3
*148 net30
*149 net31
*150 net32
*151 net33
*152 net34
*153 net35
*154 net36
*155 net37
*156 net38
*157 net39
*158 net4
*159 net40
*160 net41
*161 net42
*162 net43
*163 net44
*164 net45
*165 net5
*166 net6
*167 net7
*168 net8
*169 net9
*170 ANTENNA__061__A2
*171 ANTENNA__064__A1
*172 ANTENNA__065__C
*173 ANTENNA__068__A1
*174 ANTENNA__068__B
*175 ANTENNA__070__C
*176 ANTENNA__072__B
*177 ANTENNA__074__A3
*178 ANTENNA__076__B
*179 ANTENNA__078__B
*180 ANTENNA_clkbuf_0_clk_I
*181 ANTENNA_input10_I
*182 ANTENNA_input11_I
*183 ANTENNA_input12_I
*184 ANTENNA_input13_I
*185 ANTENNA_input14_I
*186 ANTENNA_input15_I
*187 ANTENNA_input16_I
*188 ANTENNA_input17_I
*189 ANTENNA_input18_I
*190 ANTENNA_input19_I
*191 ANTENNA_input1_I
*192 ANTENNA_input20_I
*193 ANTENNA_input21_I
*194 ANTENNA_input22_I
*195 ANTENNA_input23_I
*196 ANTENNA_input24_I
*197 ANTENNA_input25_I
*198 ANTENNA_input26_I
*199 ANTENNA_input27_I
*200 ANTENNA_input28_I
*201 ANTENNA_input29_I
*202 ANTENNA_input2_I
*203 ANTENNA_input30_I
*204 ANTENNA_input31_I
*205 ANTENNA_input32_I
*206 ANTENNA_input33_I
*207 ANTENNA_input34_I
*208 ANTENNA_input35_I
*209 ANTENNA_input36_I
*210 ANTENNA_input37_I
*211 ANTENNA_input38_I
*212 ANTENNA_input39_I
*213 ANTENNA_input3_I
*214 ANTENNA_input40_I
*215 ANTENNA_input4_I
*216 ANTENNA_input5_I
*217 ANTENNA_input6_I
*218 ANTENNA_input7_I
*219 ANTENNA_input8_I
*220 ANTENNA_input9_I
*221 ANTENNA_output44_I
*222 FILLER_0_0_144
*223 FILLER_0_0_2
*224 FILLER_0_0_49
*225 FILLER_0_0_51
*226 FILLER_0_10_101
*227 FILLER_0_10_107
*228 FILLER_0_10_111
*229 FILLER_0_10_115
*230 FILLER_0_10_121
*231 FILLER_0_10_125
*232 FILLER_0_10_143
*233 FILLER_0_10_151
*234 FILLER_0_10_22
*235 FILLER_0_10_26
*236 FILLER_0_10_29
*237 FILLER_0_10_33
*238 FILLER_0_10_37
*239 FILLER_0_10_41
*240 FILLER_0_10_45
*241 FILLER_0_10_49
*242 FILLER_0_10_53
*243 FILLER_0_10_57
*244 FILLER_0_10_89
*245 FILLER_0_10_93
*246 FILLER_0_10_97
*247 FILLER_0_11_10
*248 FILLER_0_11_114
*249 FILLER_0_11_118
*250 FILLER_0_11_122
*251 FILLER_0_11_126
*252 FILLER_0_11_130
*253 FILLER_0_11_138
*254 FILLER_0_11_33
*255 FILLER_0_11_36
*256 FILLER_0_11_40
*257 FILLER_0_11_44
*258 FILLER_0_11_48
*259 FILLER_0_11_52
*260 FILLER_0_11_54
*261 FILLER_0_11_59
*262 FILLER_0_11_67
*263 FILLER_0_11_70
*264 FILLER_0_11_86
*265 FILLER_0_11_94
*266 FILLER_0_11_98
*267 FILLER_0_1_148
*268 FILLER_0_1_16
*269 FILLER_0_1_18
*270 FILLER_0_1_2
*271 FILLER_0_1_80
*272 FILLER_0_2_150
*273 FILLER_0_2_2
*274 FILLER_0_2_37
*275 FILLER_0_2_9
*276 FILLER_0_3_150
*277 FILLER_0_3_2
*278 FILLER_0_3_72
*279 FILLER_0_3_74
*280 FILLER_0_3_81
*281 FILLER_0_3_83
*282 FILLER_0_4_2
*283 FILLER_0_4_48
*284 FILLER_0_4_92
*285 FILLER_0_5_14
*286 FILLER_0_5_22
*287 FILLER_0_5_68
*288 FILLER_0_5_72
*289 FILLER_0_5_79
*290 FILLER_0_5_86
*291 FILLER_0_6_11
*292 FILLER_0_6_13
*293 FILLER_0_6_150
*294 FILLER_0_6_2
*295 FILLER_0_6_22
*296 FILLER_0_6_32
*297 FILLER_0_6_34
*298 FILLER_0_6_4
*299 FILLER_0_6_47
*300 FILLER_0_7_109
*301 FILLER_0_7_148
*302 FILLER_0_7_30
*303 FILLER_0_7_32
*304 FILLER_0_8_103
*305 FILLER_0_8_30
*306 FILLER_0_8_34
*307 FILLER_0_8_37
*308 FILLER_0_8_41
*309 FILLER_0_8_45
*310 FILLER_0_8_49
*311 FILLER_0_8_53
*312 FILLER_0_8_57
*313 FILLER_0_8_61
*314 FILLER_0_8_65
*315 FILLER_0_8_69
*316 FILLER_0_8_73
*317 FILLER_0_8_77
*318 FILLER_0_8_86
*319 FILLER_0_9_101
*320 FILLER_0_9_113
*321 FILLER_0_9_127
*322 FILLER_0_9_148
*323 FILLER_0_9_51
*324 FILLER_0_9_55
*325 FILLER_0_9_59
*326 FILLER_0_9_63
*327 FILLER_0_9_67
*328 FILLER_0_9_72
*329 FILLER_0_9_80
*330 FILLER_0_9_82
*331 FILLER_0_9_85
*332 FILLER_0_9_89
*333 FILLER_0_9_93
*334 FILLER_0_9_97
*335 PHY_EDGE_ROW_0_Left_12
*336 PHY_EDGE_ROW_0_Right_0
*337 PHY_EDGE_ROW_10_Left_22
*338 PHY_EDGE_ROW_10_Right_10
*339 PHY_EDGE_ROW_11_Left_23
*340 PHY_EDGE_ROW_11_Right_11
*341 PHY_EDGE_ROW_1_Left_13
*342 PHY_EDGE_ROW_1_Right_1
*343 PHY_EDGE_ROW_2_Left_14
*344 PHY_EDGE_ROW_2_Right_2
*345 PHY_EDGE_ROW_3_Left_15
*346 PHY_EDGE_ROW_3_Right_3
*347 PHY_EDGE_ROW_4_Left_16
*348 PHY_EDGE_ROW_4_Right_4
*349 PHY_EDGE_ROW_5_Left_17
*350 PHY_EDGE_ROW_5_Right_5
*351 PHY_EDGE_ROW_6_Left_18
*352 PHY_EDGE_ROW_6_Right_6
*353 PHY_EDGE_ROW_7_Left_19
*354 PHY_EDGE_ROW_7_Right_7
*355 PHY_EDGE_ROW_8_Left_20
*356 PHY_EDGE_ROW_8_Right_8
*357 PHY_EDGE_ROW_9_Left_21
*358 PHY_EDGE_ROW_9_Right_9
*359 TAP_TAPCELL_ROW_0_24
*360 TAP_TAPCELL_ROW_0_25
*361 TAP_TAPCELL_ROW_0_26
*362 TAP_TAPCELL_ROW_0_27
*363 TAP_TAPCELL_ROW_10_46
*364 TAP_TAPCELL_ROW_10_47
*365 TAP_TAPCELL_ROW_11_48
*366 TAP_TAPCELL_ROW_11_49
*367 TAP_TAPCELL_ROW_11_50
*368 TAP_TAPCELL_ROW_11_51
*369 TAP_TAPCELL_ROW_1_28
*370 TAP_TAPCELL_ROW_1_29
*371 TAP_TAPCELL_ROW_2_30
*372 TAP_TAPCELL_ROW_2_31
*373 TAP_TAPCELL_ROW_3_32
*374 TAP_TAPCELL_ROW_3_33
*375 TAP_TAPCELL_ROW_4_34
*376 TAP_TAPCELL_ROW_4_35
*377 TAP_TAPCELL_ROW_5_36
*378 TAP_TAPCELL_ROW_5_37
*379 TAP_TAPCELL_ROW_6_38
*380 TAP_TAPCELL_ROW_6_39
*381 TAP_TAPCELL_ROW_7_40
*382 TAP_TAPCELL_ROW_7_41
*383 TAP_TAPCELL_ROW_8_42
*384 TAP_TAPCELL_ROW_8_43
*385 TAP_TAPCELL_ROW_9_44
*386 TAP_TAPCELL_ROW_9_45
*387 _040_
*388 _041_
*389 _042_
*390 _043_
*391 _044_
*392 _045_
*393 _046_
*394 _047_
*395 _048_
*396 _049_
*397 _050_
*398 _051_
*399 _052_
*400 _053_
*401 _054_
*402 _055_
*403 _056_
*404 _057_
*405 _058_
*406 _059_
*407 _060_
*408 _061_
*409 _062_
*410 _063_
*411 _064_
*412 _065_
*413 _066_
*414 _067_
*415 _068_
*416 _069_
*417 _070_
*418 _071_
*419 _072_
*420 _073_
*421 _074_
*422 _075_
*423 _076_
*424 _077_
*425 _078_
*426 _079_
*427 _080_
*428 _081_
*429 _082_
*430 _083_
*431 _084_
*432 clkbuf_0_clk
*433 clkbuf_1_0__f_clk
*434 clkbuf_1_1__f_clk
*435 input1
*436 input10
*437 input11
*438 input12
*439 input13
*440 input14
*441 input15
*442 input16
*443 input17
*444 input18
*445 input19
*446 input2
*447 input20
*448 input21
*449 input22
*450 input23
*451 input24
*452 input25
*453 input26
*454 input27
*455 input28
*456 input29
*457 input3
*458 input30
*459 input31
*460 input32
*461 input33
*462 input34
*463 input35
*464 input36
*465 input37
*466 input38
*467 input39
*468 input4
*469 input40
*470 input5
*471 input6
*472 input7
*473 input8
*474 input9
*475 output41
*476 output42
*477 output43
*478 output44
*479 output45
*480 wb_buttons_leds_46
*481 wb_buttons_leds_47
*482 wb_buttons_leds_48
*483 wb_buttons_leds_49
*484 wb_buttons_leds_50
*485 wb_buttons_leds_51
*486 wb_buttons_leds_52
*487 wb_buttons_leds_53
*488 wb_buttons_leds_54
*489 wb_buttons_leds_55
*490 wb_buttons_leds_56
*491 wb_buttons_leds_57
*492 wb_buttons_leds_58
*493 wb_buttons_leds_59
*494 wb_buttons_leds_60
*495 wb_buttons_leds_61
*496 wb_buttons_leds_62
*497 wb_buttons_leds_63
*498 wb_buttons_leds_64
*499 wb_buttons_leds_65
*500 wb_buttons_leds_66
*501 wb_buttons_leds_67
*502 wb_buttons_leds_68
*503 wb_buttons_leds_69
*504 wb_buttons_leds_70
*505 wb_buttons_leds_71
*506 wb_buttons_leds_72
*507 wb_buttons_leds_73
*508 wb_buttons_leds_74
*509 wb_buttons_leds_75
*510 wb_buttons_leds_76
*511 wb_buttons_leds_77
*512 wb_buttons_leds_78

*PORTS
buttons[0] I
buttons[1] I
clk I
i_wb_addr[0] I
i_wb_addr[10] I
i_wb_addr[11] I
i_wb_addr[12] I
i_wb_addr[13] I
i_wb_addr[14] I
i_wb_addr[15] I
i_wb_addr[16] I
i_wb_addr[17] I
i_wb_addr[18] I
i_wb_addr[19] I
i_wb_addr[1] I
i_wb_addr[20] I
i_wb_addr[21] I
i_wb_addr[22] I
i_wb_addr[23] I
i_wb_addr[24] I
i_wb_addr[25] I
i_wb_addr[26] I
i_wb_addr[27] I
i_wb_addr[28] I
i_wb_addr[29] I
i_wb_addr[2] I
i_wb_addr[30] I
i_wb_addr[31] I
i_wb_addr[3] I
i_wb_addr[4] I
i_wb_addr[5] I
i_wb_addr[6] I
i_wb_addr[7] I
i_wb_addr[8] I
i_wb_addr[9] I
i_wb_cyc I
i_wb_data[0] I
i_wb_data[1] I
i_wb_stb I
i_wb_we I
led_enb[0] O
led_enb[1] O
leds[0] O
leds[1] O
o_wb_ack O
o_wb_data[0] O
o_wb_data[10] O
o_wb_data[11] O
o_wb_data[12] O
o_wb_data[13] O
o_wb_data[14] O
o_wb_data[15] O
o_wb_data[16] O
o_wb_data[17] O
o_wb_data[18] O
o_wb_data[19] O
o_wb_data[1] O
o_wb_data[20] O
o_wb_data[21] O
o_wb_data[22] O
o_wb_data[23] O
o_wb_data[24] O
o_wb_data[25] O
o_wb_data[26] O
o_wb_data[27] O
o_wb_data[28] O
o_wb_data[29] O
o_wb_data[2] O
o_wb_data[30] O
o_wb_data[31] O
o_wb_data[3] O
o_wb_data[4] O
o_wb_data[5] O
o_wb_data[6] O
o_wb_data[7] O
o_wb_data[8] O
o_wb_data[9] O
o_wb_stall O
reset I

*D_NET *3 0.00972958
*CONN
*P buttons[0] I
*I *435:I I *D gf180mcu_fd_sc_mcu7t5v0__clkbuf_1
*I *191:I I *D gf180mcu_fd_sc_mcu7t5v0__antenna
*CAP
1 buttons[0] 0.0011932
2 *435:I 0.000308789
3 *191:I 0
4 *3:13 0.00150199
5 *435:I *214:I 0.000172122
6 *435:I *81:21 0.000432766
7 *435:I *163:20 0.00147509
8 *3:13 *172:I 0
9 *3:13 *198:I 1.35124e-05
10 *3:13 *415:A1 0
11 *3:13 *443:I 0.00298973
12 *3:13 *29:19 0.0002247
13 *3:13 *30:19 0.00075647
14 *3:13 *81:21 0.000481315
15 *3:13 *90:12 0.000174767
16 *3:13 *163:8 5.13239e-06
17 *3:13 *163:20 0
*RES
1 buttons[0] *3:13 23.612 
2 *3:13 *191:I 9 
3 *3:13 *435:I 13.784 
*END

*D_NET *4 0.00367387
*CONN
*P buttons[1] I
*I *446:I I *D gf180mcu_fd_sc_mcu7t5v0__clkbuf_1
*I *202:I I *D gf180mcu_fd_sc_mcu7t5v0__antenna
*CAP
1 buttons[1] 0.00042573
2 *446:I 0
3 *202:I 0.000359172
4 *4:7 0.000784902
5 *202:I *196:I 0.000392308
6 *202:I *199:I 0.0015436
7 *202:I *417:A1 4.17856e-05
8 *202:I *451:I 0.000126373
*RES
1 buttons[1] *4:7 2.86 
2 *4:7 *202:I 14.928 
3 *4:7 *446:I 9 
*END

*D_NET *5 0.0137466
*CONN
*P clk I
*I *432:I I *D gf180mcu_fd_sc_mcu7t5v0__clkbuf_16
*I *180:I I *D gf180mcu_fd_sc_mcu7t5v0__antenna
*CAP
1 clk 0.00121405
2 *432:I 0
3 *180:I 0.00142608
4 *5:19 0.00264013
5 *180:I *184:I 0.000597309
6 *180:I *193:I 0.000207595
7 *180:I *395:A3 0.000501766
8 *180:I *412:B 0.00076463
9 *180:I *416:A2 0.000255609
10 *180:I *109:8 0.00144869
11 *5:19 *172:I 0.000828203
12 *5:19 *390:I 0.00026796
13 *5:19 *395:A4 0.000248324
14 *5:19 *399:A2 0.0011635
15 *5:19 *399:A4 1.35064e-05
16 *5:19 *412:B 0.000796757
17 *5:19 *412:C 0.00039701
18 *5:19 *415:A2 0.000168189
19 *5:19 *416:B 0.000145272
20 *5:19 *441:I 0
21 *5:19 *29:19 0
22 *5:19 *30:19 0.000341907
23 *5:19 *81:21 0.000145668
24 *5:19 *90:12 0.000146998
25 *5:19 *124:8 2.28709e-05
26 *5:19 *157:115 4.57403e-06
*RES
1 clk *5:19 24.34 
2 *5:19 *180:I 27.124 
3 *5:19 *432:I 4.5 
*END

*D_NET *6 0.0162322
*CONN
*P i_wb_addr[0] I
*I *213:I I *D gf180mcu_fd_sc_mcu7t5v0__antenna
*I *457:I I *D gf180mcu_fd_sc_mcu7t5v0__buf_1
*CAP
1 i_wb_addr[0] 0.000821229
2 *213:I 0.00158925
3 *457:I 4.46202e-05
4 *6:13 0.0024551
5 *213:I o_wb_data[17] 0.000297564
6 *213:I o_wb_data[18] 6.38945e-05
7 *213:I o_wb_data[19] 1.8033e-05
8 *213:I o_wb_data[6] 0.000168812
9 *213:I o_wb_data[7] 0.000559912
10 *213:I *182:I 2.50972e-05
11 *213:I *208:I 0.00150398
12 *213:I *209:I 0.000111736
13 *213:I *210:I 0
14 *213:I *211:I 0.00185706
15 *213:I *212:I 2.50972e-05
16 *213:I *216:I 0.000299247
17 *213:I *392:A3 0.000104507
18 *213:I *410:A1 0.00050087
19 *213:I *8:13 0.000929904
20 *213:I *41:11 0.00114328
21 *213:I *156:41 0.000628827
22 *457:I o_wb_data[8] 9.84747e-05
23 *457:I o_wb_data[9] 1.09921e-05
24 *6:13 o_wb_data[4] 0.000462045
25 *6:13 o_wb_data[6] 0.000165709
26 *6:13 *188:I 0.00053541
27 *6:13 *8:13 0.000344207
28 *6:13 *39:21 0.000351606
29 *6:13 *41:11 0.000821825
30 *6:13 *42:13 0.000293901
*RES
1 i_wb_addr[0] *6:13 18.828 
2 *6:13 *457:I 13.812 
3 *6:13 *213:I 35.028 
*END

*D_NET *7 0.0165791
*CONN
*P i_wb_addr[10] I
*I *215:I I *D gf180mcu_fd_sc_mcu7t5v0__antenna
*I *468:I I *D gf180mcu_fd_sc_mcu7t5v0__clkbuf_1
*CAP
1 i_wb_addr[10] 0.00218467
2 *215:I 0.000999358
3 *468:I 0
4 *7:17 0.00318403
5 *215:I o_wb_stall 0.000283348
6 *215:I *203:I 0.00033778
7 *215:I *204:I 0.00169544
8 *215:I *206:I 0.000748911
9 *215:I *209:I 0.00163507
10 *215:I *216:I 0.000114646
11 *215:I *393:A1 0.000107648
12 *215:I *401:A2 6.91919e-05
13 *215:I *402:A2 0.000182219
14 *215:I *478:I 0.0012334
15 *215:I *28:17 0.000254486
16 *215:I *34:13 0.000662429
17 *7:17 *401:A2 0.000477909
18 *7:17 *8:13 0.000298442
19 *7:17 *17:29 0.000185429
20 *7:17 *28:17 0.000825349
21 *7:17 *37:13 0.000264063
22 *7:17 *40:13 0.000240956
23 *7:17 *157:39 0.000594345
*RES
1 i_wb_addr[10] *7:17 26.949 
2 *7:17 *468:I 4.5 
3 *7:17 *215:I 37.788 
*END

*D_NET *8 0.015143
*CONN
*P i_wb_addr[11] I
*I *216:I I *D gf180mcu_fd_sc_mcu7t5v0__antenna
*I *470:I I *D gf180mcu_fd_sc_mcu7t5v0__clkbuf_1
*CAP
1 i_wb_addr[11] 0.00235738
2 *216:I 0.00138331
3 *470:I 1.55601e-05
4 *8:13 0.00375625
5 *216:I o_wb_data[22] 3.51644e-05
6 *216:I *210:I 0.000343274
7 *216:I *211:I 7.83388e-05
8 *216:I *478:I 0.000172126
9 *470:I o_wb_data[7] 0.000113016
10 *470:I *185:I 4.18042e-05
11 *8:13 o_wb_data[2] 7.25233e-05
12 *8:13 o_wb_data[4] 0.000135306
13 *8:13 *210:I 0.000113647
14 *8:13 *396:A2 0.000515395
15 *8:13 *421:A2 1.53192e-05
16 *8:13 *477:I 7.37371e-05
17 *8:13 *9:13 0.000301189
18 *8:13 *11:19 0.00252857
19 *8:13 *36:13 0.000153536
20 *8:13 *40:13 0.000951102
21 *8:13 *157:22 0
22 *213:I *216:I 0.000299247
23 *213:I *8:13 0.000929904
24 *215:I *216:I 0.000114646
25 *6:13 *8:13 0.000344207
26 *7:17 *8:13 0.000298442
*RES
1 i_wb_addr[11] *8:13 34.844 
2 *8:13 *470:I 13.812 
3 *8:13 *216:I 24.524 
*END

*D_NET *9 0.0131328
*CONN
*P i_wb_addr[12] I
*I *217:I I *D gf180mcu_fd_sc_mcu7t5v0__antenna
*I *471:I I *D gf180mcu_fd_sc_mcu7t5v0__clkbuf_1
*CAP
1 i_wb_addr[12] 0.00146705
2 *217:I 0.000950521
3 *471:I 0.000398624
4 *9:13 0.00281619
5 *217:I *204:I 0.000208563
6 *217:I *392:A2 0.000309372
7 *217:I *393:A3 9.38235e-05
8 *217:I *402:A3 1.59524e-05
9 *217:I *405:A1 0.000194511
10 *217:I *414:A4 3.11243e-05
11 *217:I *422:A3 0.000779765
12 *217:I *460:I 0.000832474
13 *217:I *35:9 3.08232e-05
14 *217:I *90:66 0.00010506
15 *217:I *92:6 0
16 *471:I *391:A2 0.00013171
17 *471:I *393:A1 0.000751122
18 *471:I *426:B 0.000191446
19 *471:I *34:13 0.001026
20 *471:I *101:14 6.32781e-05
21 *471:I *119:14 0.000146343
22 *471:I *157:60 0.000506209
23 *9:13 *394:A2 1.40331e-05
24 *9:13 *404:A2 0.000113016
25 *9:13 *424:A2 6.16601e-05
26 *9:13 *10:17 5.11807e-05
27 *9:13 *11:19 0
28 *9:13 *92:6 3.07355e-06
29 *9:13 *104:10 2.95323e-05
30 *9:13 *119:14 0.000126978
31 *9:13 *157:60 0.00106172
32 *9:13 *160:8 1.40331e-05
33 *9:13 *162:28 0.000306398
34 *8:13 *9:13 0.000301189
*RES
1 i_wb_addr[12] *9:13 16.512 
2 *9:13 *471:I 14.408 
3 *9:13 *217:I 18.048 
*END

*D_NET *10 0.0072202
*CONN
*P i_wb_addr[13] I
*I *472:I I *D gf180mcu_fd_sc_mcu7t5v0__clkbuf_1
*I *218:I I *D gf180mcu_fd_sc_mcu7t5v0__antenna
*CAP
1 i_wb_addr[13] 0.00194265
2 *472:I 0
3 *218:I 0.000275206
4 *10:17 0.00221785
5 *218:I *182:I 0.00147156
6 *218:I *406:A3 0.0010186
7 *218:I *406:A4 0
8 *218:I *100:49 0
9 *218:I *104:32 0
10 *10:17 *424:B 0
11 *10:17 *11:19 5.11807e-05
12 *10:17 *160:23 0.000191975
13 *9:13 *10:17 5.11807e-05
*RES
1 i_wb_addr[13] *10:17 31.156 
2 *10:17 *218:I 9.076 
3 *10:17 *472:I 4.5 
*END

*D_NET *11 0.0184674
*CONN
*P i_wb_addr[14] I
*I *219:I I *D gf180mcu_fd_sc_mcu7t5v0__antenna
*I *473:I I *D gf180mcu_fd_sc_mcu7t5v0__clkbuf_1
*CAP
1 i_wb_addr[14] 0.00121581
2 *219:I 0.000314003
3 *473:I 0.000361218
4 *11:19 0.00189103
5 *219:I *201:I 0
6 *219:I *392:A4 0.000146499
7 *219:I *431:D 0.0010721
8 *219:I *32:13 0.000107803
9 *473:I o_wb_data[10] 0.000245036
10 *473:I o_wb_data[9] 6.67912e-05
11 *473:I *387:I 2.19307e-05
12 *473:I *403:A1 0.000506564
13 *473:I *153:24 0.000471717
14 *473:I *164:26 0.00107156
15 *11:19 *207:I 0.000784131
16 *11:19 *396:A2 0.000181954
17 *11:19 *425:A1 8.75488e-05
18 *11:19 *431:D 0.000518773
19 *11:19 *12:9 0.000295559
20 *11:19 *32:13 0.000531088
21 *11:19 *36:13 0.00160749
22 *11:19 *37:13 0.00224719
23 *11:19 *168:24 0.00214182
24 *8:13 *11:19 0.00252857
25 *9:13 *11:19 0
26 *10:17 *11:19 5.11807e-05
*RES
1 i_wb_addr[14] *11:19 40.62 
2 *11:19 *473:I 17.66 
3 *11:19 *219:I 7.724 
*END

*D_NET *12 0.00729579
*CONN
*P i_wb_addr[15] I
*I *474:I I *D gf180mcu_fd_sc_mcu7t5v0__clkbuf_1
*I *220:I I *D gf180mcu_fd_sc_mcu7t5v0__antenna
*CAP
1 i_wb_addr[15] 0.000912397
2 *474:I 4.39663e-06
3 *220:I 0.000167702
4 *12:9 0.0010845
5 *220:I *104:32 2.08795e-05
6 *220:I *160:23 0.000229365
7 *474:I *427:D 0.000113027
8 *474:I *104:32 8.14957e-05
9 *12:9 *406:A4 4.04136e-05
10 *12:9 *409:A1 3.5802e-05
11 *12:9 *424:A1 2.47016e-06
12 *12:9 *424:B 0.00149324
13 *12:9 *427:D 0.00209311
14 *12:9 *13:33 0.000383657
15 *12:9 *104:32 0.00033778
16 *11:19 *12:9 0.000295559
*RES
1 i_wb_addr[15] *12:9 12.74 
2 *12:9 *220:I 15.06 
3 *12:9 *474:I 4.812 
*END

*D_NET *13 0.0145119
*CONN
*P i_wb_addr[16] I
*I *181:I I *D gf180mcu_fd_sc_mcu7t5v0__antenna
*I *436:I I *D gf180mcu_fd_sc_mcu7t5v0__clkbuf_1
*CAP
1 i_wb_addr[16] 0.00200648
2 *181:I 0.000643725
3 *436:I 2.91162e-05
4 *13:33 0.00267932
5 *181:I o_wb_data[12] 0.000537812
6 *181:I *201:I 1.12327e-05
7 *181:I *203:I 0.000310387
8 *181:I *207:I 0.000193305
9 *181:I *393:A4 1.63891e-05
10 *181:I *403:A1 0.000102761
11 *181:I *430:CLK 0.000947217
12 *181:I *156:18 0.000252255
13 *436:I *393:A2 2.82494e-05
14 *13:33 *182:I 0.000395126
15 *13:33 *186:I 0
16 *13:33 *392:A1 0.00156177
17 *13:33 *393:A1 0.000113016
18 *13:33 *393:A2 6.01689e-05
19 *13:33 *396:A1 0.00039259
20 *13:33 *406:A4 4.40059e-05
21 *13:33 *409:A1 0.000205266
22 *13:33 *424:A2 0.000257455
23 *13:33 *430:CLK 0.000362685
24 *13:33 *14:17 0.000485588
25 *13:33 *91:6 1.0378e-05
26 *13:33 *101:14 0.000385113
27 *13:33 *104:10 9.96348e-05
28 *13:33 *104:32 0.00049716
29 *13:33 *119:14 0.00110933
30 *13:33 *157:60 0.000390688
31 *12:9 *13:33 0.000383657
*RES
1 i_wb_addr[16] *13:33 48.06 
2 *13:33 *436:I 4.812 
3 *13:33 *181:I 20.052 
*END

*D_NET *14 0.0114819
*CONN
*P i_wb_addr[17] I
*I *437:I I *D gf180mcu_fd_sc_mcu7t5v0__clkbuf_1
*I *182:I I *D gf180mcu_fd_sc_mcu7t5v0__antenna
*CAP
1 i_wb_addr[17] 0.00099833
2 *437:I 0
3 *182:I 0.000943399
4 *14:17 0.00194173
5 *182:I *212:I 0
6 *182:I *406:A3 8.49878e-05
7 *182:I *406:A4 2.11231e-05
8 *182:I *100:49 0.000171397
9 *182:I *104:32 0
10 *182:I *162:28 0.000432113
11 *14:17 *391:A1 0.000683813
12 *14:17 *396:A1 0.000872065
13 *14:17 *396:A3 0
14 *14:17 *404:A1 1.52964e-05
15 *14:17 *406:A1 0.000282781
16 *14:17 *424:B 3.92371e-06
17 *14:17 *15:5 0.000445235
18 *14:17 *91:6 0.000878098
19 *14:17 *94:6 0.000456316
20 *14:17 *100:28 0.00083794
21 *14:17 *100:49 2.14739e-05
22 *14:17 *157:60 1.45323e-05
23 *213:I *182:I 2.50972e-05
24 *218:I *182:I 0.00147156
25 *13:33 *182:I 0.000395126
26 *13:33 *14:17 0.000485588
*RES
1 i_wb_addr[17] *14:17 22.572 
2 *14:17 *182:I 22.964 
3 *14:17 *437:I 4.5 
*END

*D_NET *15 0.0094
*CONN
*P i_wb_addr[18] I
*I *438:I I *D gf180mcu_fd_sc_mcu7t5v0__clkbuf_1
*I *183:I I *D gf180mcu_fd_sc_mcu7t5v0__antenna
*CAP
1 i_wb_addr[18] 0.000796277
2 *438:I 0.000121732
3 *183:I 0.00071352
4 *15:5 0.00163153
5 *183:I *173:I 4.67771e-06
6 *183:I *184:I 1.37543e-05
7 *183:I *186:I 5.6827e-05
8 *183:I *406:A2 0.00156918
9 *183:I *408:A2 2.42026e-05
10 *183:I *409:A2 0.000750262
11 *183:I *410:A2 1.91996e-05
12 *183:I *416:A2 3.51404e-05
13 *183:I *433:I 5.96851e-05
14 *183:I *434:I 3.75723e-05
15 *183:I *475:I 6.64873e-05
16 *183:I *160:23 0.000139186
17 *438:I *396:A4 4.25344e-05
18 *15:5 *391:A4 1.23163e-05
19 *15:5 *396:A4 0.00100191
20 *15:5 *406:A1 0.000309426
21 *15:5 *406:A2 0.000122244
22 *15:5 *407:A1 0.000316936
23 *15:5 *434:I 1.09486e-05
24 *15:5 *16:9 0.000364799
25 *15:5 *94:6 0.000456316
26 *15:5 *97:37 0.0002781
27 *14:17 *15:5 0.000445235
*RES
1 i_wb_addr[18] *15:5 11.076 
2 *15:5 *183:I 13.028 
3 *15:5 *438:I 5.436 
*END

*D_NET *16 0.00996779
*CONN
*P i_wb_addr[19] I
*I *184:I I *D gf180mcu_fd_sc_mcu7t5v0__antenna
*I *439:I I *D gf180mcu_fd_sc_mcu7t5v0__clkbuf_1
*CAP
1 i_wb_addr[19] 0.000921768
2 *184:I 0.00100998
3 *439:I 0.000561841
4 *16:9 0.00249359
5 *184:I *407:A2 0.000245179
6 *184:I *408:A2 4.4119e-05
7 *184:I *409:A2 2.20235e-05
8 *184:I *410:A2 1.40331e-05
9 *184:I *411:A2 0.000265501
10 *184:I *433:I 0.000125947
11 *184:I *434:I 0.00113916
12 *184:I *109:8 3.3698e-05
13 *184:I *156:41 5.72795e-05
14 *439:I *396:A3 0.000113016
15 *439:I *409:A2 0.000122244
16 *439:I *157:60 0
17 *16:9 *391:A4 0.000621098
18 *16:9 *396:A4 3.44791e-05
19 *16:9 *407:A1 0.000146981
20 *16:9 *407:A2 0.000574773
21 *16:9 *434:I 0.000113016
22 *16:9 *18:7 0.000329125
23 *16:9 *19:17 3.07722e-06
24 *180:I *184:I 0.000597309
25 *183:I *184:I 1.37543e-05
26 *15:5 *16:9 0.000364799
*RES
1 i_wb_addr[19] *16:9 10.66 
2 *16:9 *439:I 16.62 
3 *16:9 *184:I 15.108 
*END

*D_NET *17 0.017367
*CONN
*P i_wb_addr[1] I
*I *185:I I *D gf180mcu_fd_sc_mcu7t5v0__antenna
*I *440:I I *D gf180mcu_fd_sc_mcu7t5v0__buf_1
*CAP
1 i_wb_addr[1] 0.00126758
2 *185:I 0.00131008
3 *440:I 0
4 *17:29 0.00257765
5 *185:I o_wb_data[11] 9.00155e-05
6 *185:I o_wb_data[16] 0.000137856
7 *185:I o_wb_data[19] 5.79782e-05
8 *185:I o_wb_data[31] 0.000488479
9 *185:I o_wb_data[3] 0.00146724
10 *185:I o_wb_data[5] 2.23375e-05
11 *185:I o_wb_data[7] 0.000156534
12 *185:I *200:I 0.00177869
13 *185:I *206:I 0.00137694
14 *185:I *210:I 0.000415577
15 *185:I *211:I 0.000479251
16 *185:I *418:A1 1.56958e-05
17 *185:I *478:I 0.00105922
18 *185:I *42:13 0.000370687
19 *185:I *153:24 0.000245653
20 *185:I *156:18 5.57504e-05
21 *17:29 o_wb_ack 0.000756648
22 *17:29 o_wb_data[3] 0.000799285
23 *17:29 o_wb_data[4] 0
24 *17:29 o_wb_data[6] 0.000163242
25 *17:29 *188:I 5.21634e-06
26 *17:29 *401:A3 0.000175812
27 *17:29 *458:I 3.5459e-05
28 *17:29 *39:21 3.07432e-05
29 *17:29 *40:13 0.000280852
30 *17:29 *42:13 0.000825916
31 *17:29 *164:26 0.000693375
32 *470:I *185:I 4.18042e-05
33 *7:17 *17:29 0.000185429
*RES
1 i_wb_addr[1] *17:29 23.82 
2 *17:29 *440:I 4.5 
3 *17:29 *185:I 33.156 
*END

*D_NET *18 0.0143615
*CONN
*P i_wb_addr[20] I
*I *441:I I *D gf180mcu_fd_sc_mcu7t5v0__clkbuf_1
*I *186:I I *D gf180mcu_fd_sc_mcu7t5v0__antenna
*CAP
1 i_wb_addr[20] 0.00032531
2 *441:I 0.00105874
3 *186:I 0.00325274
4 *18:7 0.00463679
5 *186:I *396:A2 0.000529891
6 *186:I *90:39 0.000158752
7 *186:I *90:50 0
8 *186:I *104:32 0
9 *186:I *157:88 0.000573556
10 *186:I *163:22 7.70799e-05
11 *441:I *188:I 7.06999e-06
12 *441:I *395:A2 0.002189
13 *441:I *396:A2 0.000665057
14 *441:I *443:I 0
15 *441:I *22:15 4.19674e-05
16 *441:I *27:23 0.000104752
17 *441:I *29:19 3.32327e-05
18 *441:I *30:19 2.38773e-05
19 *18:7 *19:17 0.000297762
20 *183:I *186:I 5.6827e-05
21 *5:19 *441:I 0
22 *13:33 *186:I 0
23 *16:9 *18:7 0.000329125
*RES
1 i_wb_addr[20] *18:7 9.128 
2 *18:7 *186:I 34.432 
3 *18:7 *441:I 18.568 
*END

*D_NET *19 0.0130435
*CONN
*P i_wb_addr[21] I
*I *187:I I *D gf180mcu_fd_sc_mcu7t5v0__antenna
*I *442:I I *D gf180mcu_fd_sc_mcu7t5v0__clkbuf_1
*CAP
1 i_wb_addr[21] 0.00151794
2 *187:I 0.000291314
3 *442:I 0
4 *19:17 0.00180925
5 *187:I *194:I 0.000327833
6 *187:I *417:A1 0.00018025
7 *187:I *420:B 2.89755e-05
8 *187:I *163:20 6.11941e-05
9 *19:17 *190:I 0.00013144
10 *19:17 *193:I 0.00380202
11 *19:17 *214:I 0.000137381
12 *19:17 *395:A2 3.78424e-05
13 *19:17 *396:A2 0.000161043
14 *19:17 *406:A1 0.00298213
15 *19:17 *407:A1 1.59524e-05
16 *19:17 *407:A2 6.38863e-05
17 *19:17 *417:A1 0.000311257
18 *19:17 *420:B 3.54182e-05
19 *19:17 *475:I 0.000248378
20 *19:17 *20:11 0.000281738
21 *19:17 *90:33 0.000305041
22 *19:17 *90:134 1.23478e-05
23 *16:9 *19:17 3.07722e-06
24 *18:7 *19:17 0.000297762
*RES
1 i_wb_addr[21] *19:17 30.268 
2 *19:17 *442:I 4.5 
3 *19:17 *187:I 16.204 
*END

*D_NET *20 0.0259701
*CONN
*P i_wb_addr[22] I
*I *443:I I *D gf180mcu_fd_sc_mcu7t5v0__clkbuf_1
*I *188:I I *D gf180mcu_fd_sc_mcu7t5v0__antenna
*CAP
1 i_wb_addr[22] 0.00041583
2 *443:I 0.00184399
3 *188:I 0.00189916
4 *20:11 0.00415899
5 *188:I o_wb_data[1] 0.000236426
6 *188:I o_wb_data[3] 5.3338e-05
7 *188:I o_wb_data[5] 0.000330347
8 *188:I o_wb_data[6] 7.24656e-05
9 *188:I *193:I 2.53135e-05
10 *188:I *391:A4 0.000147947
11 *188:I *394:A2 0.000835866
12 *188:I *395:A2 3.70435e-05
13 *188:I *396:A2 0.000247883
14 *188:I *407:A1 0.000526783
15 *188:I *409:A1 0.00108031
16 *188:I *414:A1 0.000952784
17 *188:I *424:A1 0
18 *188:I *425:B 0.000605444
19 *188:I *458:I 0
20 *188:I *477:I 0.00262987
21 *188:I *478:I 0.000108674
22 *188:I *40:13 8.66706e-05
23 *188:I *41:11 0.000186465
24 *188:I *42:13 1.91996e-05
25 *188:I *97:8 0
26 *188:I *104:10 0.00058339
27 *188:I *162:28 5.12871e-05
28 *443:I *193:I 0.000429969
29 *443:I *395:A2 7.47066e-05
30 *443:I *400:A2 6.89586e-05
31 *443:I *445:I 0
32 *443:I *448:I 0.000613651
33 *443:I *30:19 0.00298902
34 *20:11 *395:A2 0.000185295
35 *20:11 *396:A2 2.46831e-05
36 *20:11 *21:13 0.000618402
37 *20:11 *100:28 1.07369e-05
38 *441:I *188:I 7.06999e-06
39 *441:I *443:I 0
40 *3:13 *443:I 0.00298973
41 *6:13 *188:I 0.00053541
42 *17:29 *188:I 5.21634e-06
43 *19:17 *20:11 0.000281738
*RES
1 i_wb_addr[22] *20:11 10.584 
2 *20:11 *188:I 32.296 
3 *20:11 *443:I 38.384 
*END

*D_NET *21 0.0112279
*CONN
*P i_wb_addr[23] I
*I *189:I I *D gf180mcu_fd_sc_mcu7t5v0__antenna
*I *444:I I *D gf180mcu_fd_sc_mcu7t5v0__clkbuf_1
*CAP
1 i_wb_addr[23] 0.00139036
2 *189:I 0.000291662
3 *444:I 0
4 *21:13 0.00168203
5 *189:I *192:I 0.000410048
6 *189:I *194:I 0.000271764
7 *189:I *395:A1 0.000517405
8 *189:I *417:A1 4.73045e-05
9 *189:I *23:17 0.000152516
10 *189:I *163:20 3.17863e-05
11 *21:13 *395:A1 0.00277122
12 *21:13 *396:A1 8.18479e-06
13 *21:13 *400:A1 2.14739e-05
14 *21:13 *22:15 0.000318895
15 *21:13 *23:17 0.00262587
16 *21:13 *100:28 6.89584e-05
17 *20:11 *21:13 0.000618402
*RES
1 i_wb_addr[23] *21:13 18.772 
2 *21:13 *444:I 4.5 
3 *21:13 *189:I 17.244 
*END

*D_NET *22 0.0140636
*CONN
*P i_wb_addr[24] I
*I *445:I I *D gf180mcu_fd_sc_mcu7t5v0__clkbuf_1
*I *190:I I *D gf180mcu_fd_sc_mcu7t5v0__antenna
*CAP
1 i_wb_addr[24] 0.00105631
2 *445:I 0.000983963
3 *190:I 0.00108303
4 *22:15 0.0031233
5 *190:I *195:I 9.52581e-05
6 *190:I *395:A1 0
7 *190:I *395:A2 3.4596e-05
8 *190:I *396:A1 0.000355286
9 *190:I *406:A1 0.00276526
10 *190:I *417:A1 0
11 *190:I *419:A1 0.00150897
12 *190:I *419:A2 3.542e-05
13 *190:I *420:A2 0.00100231
14 *190:I *420:B 2.25463e-05
15 *190:I *429:D 3.511e-05
16 *190:I *475:I 0.000913326
17 *190:I *97:8 1.56766e-05
18 *190:I *100:28 8.35178e-06
19 *190:I *163:20 2.6236e-05
20 *445:I *397:A2 7.5392e-05
21 *445:I *400:A4 0.000102934
22 *445:I *415:B 0
23 *445:I *448:I 0
24 *445:I *29:19 0
25 *445:I *97:8 1.48268e-05
26 *22:15 *400:A1 4.67771e-06
27 *22:15 *23:17 0.000308492
28 *441:I *22:15 4.19674e-05
29 *443:I *445:I 0
30 *19:17 *190:I 0.00013144
31 *21:13 *22:15 0.000318895
*RES
1 i_wb_addr[24] *22:15 22.288 
2 *22:15 *190:I 32.456 
3 *22:15 *445:I 15.344 
*END

*D_NET *23 0.0101741
*CONN
*P i_wb_addr[25] I
*I *447:I I *D gf180mcu_fd_sc_mcu7t5v0__clkbuf_1
*I *192:I I *D gf180mcu_fd_sc_mcu7t5v0__antenna
*CAP
1 i_wb_addr[25] 0.00163207
2 *447:I 0
3 *192:I 0.000223853
4 *23:17 0.00185592
5 *192:I *399:A1 1.91996e-05
6 *192:I *400:A2 2.94292e-05
7 *192:I *417:A1 1.12609e-05
8 *23:17 *395:A3 0.00155305
9 *23:17 *399:A1 0.000300913
10 *23:17 *400:A1 0.000258226
11 *23:17 *400:A2 0.000211219
12 *23:17 *24:7 0.000582074
13 *189:I *192:I 0.000410048
14 *189:I *23:17 0.000152516
15 *21:13 *23:17 0.00262587
16 *22:15 *23:17 0.000308492
*RES
1 i_wb_addr[25] *23:17 20.228 
2 *23:17 *192:I 6.684 
3 *23:17 *447:I 4.5 
*END

*D_NET *24 0.014754
*CONN
*P i_wb_addr[26] I
*I *448:I I *D gf180mcu_fd_sc_mcu7t5v0__clkbuf_1
*I *193:I I *D gf180mcu_fd_sc_mcu7t5v0__antenna
*CAP
1 i_wb_addr[26] 0.000655655
2 *448:I 0.000481272
3 *193:I 0.00118201
4 *24:7 0.00231893
5 *193:I *173:I 0
6 *193:I *176:I 0.00014878
7 *193:I *407:A2 0.00144028
8 *193:I *475:I 1.81575e-05
9 *193:I *90:134 6.64873e-05
10 *193:I *97:8 0.00157133
11 *193:I *106:27 0.000403226
12 *193:I *109:8 2.22593e-05
13 *193:I *157:60 0.000336154
14 *448:I *397:A2 6.11661e-05
15 *448:I *400:A4 2.44234e-05
16 *448:I *97:8 0.000116476
17 *24:7 *400:A2 0.000205674
18 *24:7 *400:A4 5.63044e-06
19 *24:7 *25:13 3.54328e-05
20 *24:7 *26:19 0
21 *180:I *193:I 0.000207595
22 *188:I *193:I 2.53135e-05
23 *443:I *193:I 0.000429969
24 *443:I *448:I 0.000613651
25 *445:I *448:I 0
26 *19:17 *193:I 0.00380202
27 *23:17 *24:7 0.000582074
*RES
1 i_wb_addr[26] *24:7 11.208 
2 *24:7 *193:I 27.2 