*SPEF "ieee 1481-1999"
*DESIGN "wb_buttons_leds"
*DATE "11:11:11 Fri 11 11, 1111"
*VENDOR "OpenRCX"
*PROGRAM "Parallel Extraction"
*VERSION "1.0"
*DESIGN_FLOW "NAME_SCOPE LOCAL" "PIN_CAP NONE"
*DIVIDER /
*DELIMITER :
*BUS_DELIMITER []
*T_UNIT 1 NS
*C_UNIT 1 PF
*R_UNIT 1 OHM
*L_UNIT 1 HENRY

*NAME_MAP
*3 buttons[0]
*4 buttons[1]
*5 clk
*6 i_wb_addr[0]
*7 i_wb_addr[10]
*8 i_wb_addr[11]
*9 i_wb_addr[12]
*10 i_wb_addr[13]
*11 i_wb_addr[14]
*12 i_wb_addr[15]
*13 i_wb_addr[16]
*14 i_wb_addr[17]
*15 i_wb_addr[18]
*16 i_wb_addr[19]
*17 i_wb_addr[1]
*18 i_wb_addr[20]
*19 i_wb_addr[21]
*20 i_wb_addr[22]
*21 i_wb_addr[23]
*22 i_wb_addr[24]
*23 i_wb_addr[25]
*24 i_wb_addr[26]
*25 i_wb_addr[27]
*26 i_wb_addr[28]
*27 i_wb_addr[29]
*28 i_wb_addr[2]
*29 i_wb_addr[30]
*30 i_wb_addr[31]
*31 i_wb_addr[3]
*32 i_wb_addr[4]
*33 i_wb_addr[5]
*34 i_wb_addr[6]
*35 i_wb_addr[7]
*36 i_wb_addr[8]
*37 i_wb_addr[9]
*38 i_wb_cyc
*39 i_wb_data[0]
*40 i_wb_data[1]
*41 i_wb_stb
*42 i_wb_we
*43 leds[0]
*44 leds[1]
*45 o_wb_ack
*46 o_wb_data[0]
*47 net54
*48 net55
*49 net56
*50 net57
*51 net58
*52 net59
*53 net60
*54 net61
*55 net62
*56 net63
*57 o_wb_data[1]
*58 net64
*59 net65
*60 net66
*61 net67
*62 net68
*63 net69
*64 net70
*65 net71
*66 net72
*67 net73
*68 net46
*69 net74
*70 net75
*71 net47
*72 net48
*73 net49
*74 net50
*75 net51
*76 net52
*77 net53
*78 net76
*79 reset
*80 _000_
*81 _001_
*82 _002_
*83 _003_
*84 _004_
*85 _005_
*86 _006_
*87 _007_
*88 _008_
*89 _009_
*90 _010_
*91 _011_
*92 _012_
*93 _013_
*94 _014_
*95 _015_
*96 _016_
*97 _017_
*98 _018_
*99 _019_
*100 _020_
*101 _021_
*102 _022_
*103 _023_
*104 _024_
*105 _025_
*106 _026_
*107 _027_
*108 _028_
*109 _029_
*110 _030_
*111 _031_
*112 _032_
*113 _033_
*114 _034_
*115 _035_
*116 _036_
*117 _037_
*118 _038_
*119 _039_
*120 clknet_0_clk
*121 clknet_1_0__leaf_clk
*122 clknet_1_1__leaf_clk
*123 net1
*124 net10
*125 net11
*126 net12
*127 net13
*128 net14
*129 net15
*130 net16
*131 net17
*132 net18
*133 net19
*134 net2
*135 net20
*136 net21
*137 net22
*138 net23
*139 net24
*140 net25
*141 net26
*142 net27
*143 net28
*144 net29
*145 net3
*146 net30
*147 net31
*148 net32
*149 net33
*150 net34
*151 net35
*152 net36
*153 net37
*154 net38
*155 net39
*156 net4
*157 net40
*158 net41
*159 net42
*160 net43
*161 net44
*162 net45
*163 net5
*164 net6
*165 net7
*166 net8
*167 net9
*168 ANTENNA_clkbuf_0_clk_I
*169 ANTENNA_input10_I
*170 ANTENNA_input11_I
*171 ANTENNA_input12_I
*172 ANTENNA_input13_I
*173 ANTENNA_input14_I
*174 ANTENNA_input15_I
*175 ANTENNA_input16_I
*176 ANTENNA_input17_I
*177 ANTENNA_input18_I
*178 ANTENNA_input19_I
*179 ANTENNA_input1_I
*180 ANTENNA_input20_I
*181 ANTENNA_input21_I
*182 ANTENNA_input22_I
*183 ANTENNA_input23_I
*184 ANTENNA_input24_I
*185 ANTENNA_input25_I
*186 ANTENNA_input26_I
*187 ANTENNA_input27_I
*188 ANTENNA_input28_I
*189 ANTENNA_input29_I
*190 ANTENNA_input2_I
*191 ANTENNA_input30_I
*192 ANTENNA_input31_I
*193 ANTENNA_input32_I
*194 ANTENNA_input33_I
*195 ANTENNA_input34_I
*196 ANTENNA_input35_I
*197 ANTENNA_input36_I
*198 ANTENNA_input37_I
*199 ANTENNA_input38_I
*200 ANTENNA_input39_I
*201 ANTENNA_input3_I
*202 ANTENNA_input40_I
*203 ANTENNA_input4_I
*204 ANTENNA_input5_I
*205 ANTENNA_input6_I
*206 ANTENNA_input7_I
*207 ANTENNA_input8_I
*208 ANTENNA_input9_I
*209 FILLER_0_0_101
*210 FILLER_0_0_134
*211 FILLER_0_0_150
*212 FILLER_0_0_25
*213 FILLER_0_0_27
*214 FILLER_0_0_6
*215 FILLER_0_0_70
*216 FILLER_0_0_72
*217 FILLER_0_10_103
*218 FILLER_0_10_131
*219 FILLER_0_10_135
*220 FILLER_0_10_137
*221 FILLER_0_10_16
*222 FILLER_0_10_32
*223 FILLER_0_10_34
*224 FILLER_0_10_37
*225 FILLER_0_10_41
*226 FILLER_0_11_142
*227 FILLER_0_11_38
*228 FILLER_0_11_46
*229 FILLER_0_11_6
*230 FILLER_0_11_64
*231 FILLER_0_11_68
*232 FILLER_0_11_77
*233 FILLER_0_11_81
*234 FILLER_0_12_107
*235 FILLER_0_12_12
*236 FILLER_0_12_123
*237 FILLER_0_12_28
*238 FILLER_0_12_32
*239 FILLER_0_12_34
*240 FILLER_0_12_37
*241 FILLER_0_12_68
*242 FILLER_0_13_114
*243 FILLER_0_13_130
*244 FILLER_0_13_138
*245 FILLER_0_13_142
*246 FILLER_0_13_150
*247 FILLER_0_13_2
*248 FILLER_0_13_38
*249 FILLER_0_13_46
*250 FILLER_0_13_48
*251 FILLER_0_13_53
*252 FILLER_0_13_6
*253 FILLER_0_13_69
*254 FILLER_0_13_72
*255 FILLER_0_13_80
*256 FILLER_0_13_84
*257 FILLER_0_14_101
*258 FILLER_0_14_107
*259 FILLER_0_14_139
*260 FILLER_0_14_147
*261 FILLER_0_14_22
*262 FILLER_0_14_30
*263 FILLER_0_14_34
*264 FILLER_0_14_37
*265 FILLER_0_14_6
*266 FILLER_0_15_109
*267 FILLER_0_15_125
*268 FILLER_0_15_133
*269 FILLER_0_15_137
*270 FILLER_0_15_139
*271 FILLER_0_15_142
*272 FILLER_0_15_146
*273 FILLER_0_15_6
*274 FILLER_0_15_72
*275 FILLER_0_15_77
*276 FILLER_0_16_101
*277 FILLER_0_16_104
*278 FILLER_0_16_108
*279 FILLER_0_16_113
*280 FILLER_0_16_119
*281 FILLER_0_16_125
*282 FILLER_0_16_133
*283 FILLER_0_16_135
*284 FILLER_0_16_138
*285 FILLER_0_16_14
*286 FILLER_0_16_146
*287 FILLER_0_16_30
*288 FILLER_0_16_36
*289 FILLER_0_16_40
*290 FILLER_0_16_42
*291 FILLER_0_16_47
*292 FILLER_0_16_53
*293 FILLER_0_16_59
*294 FILLER_0_16_63
*295 FILLER_0_16_80
*296 FILLER_0_16_84
*297 FILLER_0_16_89
*298 FILLER_0_16_95
*299 FILLER_0_16_99
*300 FILLER_0_1_109
*301 FILLER_0_1_113
*302 FILLER_0_1_117
*303 FILLER_0_1_121
*304 FILLER_0_1_133
*305 FILLER_0_1_142
*306 FILLER_0_1_144
*307 FILLER_0_1_151
*308 FILLER_0_1_24
*309 FILLER_0_2_101
*310 FILLER_0_2_107
*311 FILLER_0_2_115
*312 FILLER_0_2_119
*313 FILLER_0_2_122
*314 FILLER_0_2_128
*315 FILLER_0_2_134
*316 FILLER_0_2_138
*317 FILLER_0_2_16
*318 FILLER_0_2_20
*319 FILLER_0_2_24
*320 FILLER_0_2_29
*321 FILLER_0_2_37
*322 FILLER_0_2_39
*323 FILLER_0_2_44
*324 FILLER_0_2_97
*325 FILLER_0_3_12
*326 FILLER_0_3_128
*327 FILLER_0_3_136
*328 FILLER_0_3_142
*329 FILLER_0_3_146
*330 FILLER_0_3_16
*331 FILLER_0_3_20
*332 FILLER_0_3_24
*333 FILLER_0_3_28
*334 FILLER_0_3_30
*335 FILLER_0_3_72
*336 FILLER_0_3_76
*337 FILLER_0_3_79
*338 FILLER_0_3_8
*339 FILLER_0_3_85
*340 FILLER_0_4_103
*341 FILLER_0_4_107
*342 FILLER_0_4_12
*343 FILLER_0_4_139
*344 FILLER_0_4_147
*345 FILLER_0_4_16
*346 FILLER_0_4_20
*347 FILLER_0_4_28
*348 FILLER_0_4_32
*349 FILLER_0_4_34
*350 FILLER_0_4_37
*351 FILLER_0_4_45
*352 FILLER_0_4_8
*353 FILLER_0_4_83
*354 FILLER_0_4_99
*355 FILLER_0_5_12
*356 FILLER_0_5_129
*357 FILLER_0_5_137
*358 FILLER_0_5_139
*359 FILLER_0_5_142
*360 FILLER_0_5_148
*361 FILLER_0_5_16
*362 FILLER_0_5_18
*363 FILLER_0_5_69
*364 FILLER_0_5_8
*365 FILLER_0_6_101
*366 FILLER_0_6_118
*367 FILLER_0_6_134
*368 FILLER_0_6_138
*369 FILLER_0_6_14
*370 FILLER_0_6_18
*371 FILLER_0_6_22
*372 FILLER_0_6_30
*373 FILLER_0_6_34
*374 FILLER_0_6_37
*375 FILLER_0_6_53
*376 FILLER_0_6_61
*377 FILLER_0_6_63
*378 FILLER_0_7_12
*379 FILLER_0_7_121
*380 FILLER_0_7_137
*381 FILLER_0_7_139
*382 FILLER_0_7_142
*383 FILLER_0_7_20
*384 FILLER_0_7_24
*385 FILLER_0_7_62
*386 FILLER_0_7_8
*387 FILLER_0_8_12
*388 FILLER_0_8_141
*389 FILLER_0_8_143
*390 FILLER_0_8_28
*391 FILLER_0_8_32
*392 FILLER_0_8_34
*393 FILLER_0_8_37
*394 FILLER_0_8_53
*395 FILLER_0_8_8
*396 FILLER_0_9_12
*397 FILLER_0_9_131
*398 FILLER_0_9_139
*399 FILLER_0_9_142
*400 FILLER_0_9_28
*401 FILLER_0_9_32
*402 FILLER_0_9_63
*403 FILLER_0_9_72
*404 FILLER_0_9_74
*405 FILLER_0_9_8
*406 PHY_EDGE_ROW_0_Left_17
*407 PHY_EDGE_ROW_0_Right_0
*408 PHY_EDGE_ROW_10_Left_27
*409 PHY_EDGE_ROW_10_Right_10
*410 PHY_EDGE_ROW_11_Left_28
*411 PHY_EDGE_ROW_11_Right_11
*412 PHY_EDGE_ROW_12_Left_29
*413 PHY_EDGE_ROW_12_Right_12
*414 PHY_EDGE_ROW_13_Left_30
*415 PHY_EDGE_ROW_13_Right_13
*416 PHY_EDGE_ROW_14_Left_31
*417 PHY_EDGE_ROW_14_Right_14
*418 PHY_EDGE_ROW_15_Left_32
*419 PHY_EDGE_ROW_15_Right_15
*420 PHY_EDGE_ROW_16_Left_33
*421 PHY_EDGE_ROW_16_Right_16
*422 PHY_EDGE_ROW_1_Left_18
*423 PHY_EDGE_ROW_1_Right_1
*424 PHY_EDGE_ROW_2_Left_19
*425 PHY_EDGE_ROW_2_Right_2
*426 PHY_EDGE_ROW_3_Left_20
*427 PHY_EDGE_ROW_3_Right_3
*428 PHY_EDGE_ROW_4_Left_21
*429 PHY_EDGE_ROW_4_Right_4
*430 PHY_EDGE_ROW_5_Left_22
*431 PHY_EDGE_ROW_5_Right_5
*432 PHY_EDGE_ROW_6_Left_23
*433 PHY_EDGE_ROW_6_Right_6
*434 PHY_EDGE_ROW_7_Left_24
*435 PHY_EDGE_ROW_7_Right_7
*436 PHY_EDGE_ROW_8_Left_25
*437 PHY_EDGE_ROW_8_Right_8
*438 PHY_EDGE_ROW_9_Left_26
*439 PHY_EDGE_ROW_9_Right_9
*440 TAP_TAPCELL_ROW_0_34
*441 TAP_TAPCELL_ROW_0_35
*442 TAP_TAPCELL_ROW_0_36
*443 TAP_TAPCELL_ROW_0_37
*444 TAP_TAPCELL_ROW_10_56
*445 TAP_TAPCELL_ROW_10_57
*446 TAP_TAPCELL_ROW_11_58
*447 TAP_TAPCELL_ROW_11_59
*448 TAP_TAPCELL_ROW_12_60
*449 TAP_TAPCELL_ROW_12_61
*450 TAP_TAPCELL_ROW_13_62
*451 TAP_TAPCELL_ROW_13_63
*452 TAP_TAPCELL_ROW_14_64
*453 TAP_TAPCELL_ROW_14_65
*454 TAP_TAPCELL_ROW_15_66
*455 TAP_TAPCELL_ROW_15_67
*456 TAP_TAPCELL_ROW_16_68
*457 TAP_TAPCELL_ROW_16_69
*458 TAP_TAPCELL_ROW_16_70
*459 TAP_TAPCELL_ROW_16_71
*460 TAP_TAPCELL_ROW_1_38
*461 TAP_TAPCELL_ROW_1_39
*462 TAP_TAPCELL_ROW_2_40
*463 TAP_TAPCELL_ROW_2_41
*464 TAP_TAPCELL_ROW_3_42
*465 TAP_TAPCELL_ROW_3_43
*466 TAP_TAPCELL_ROW_4_44
*467 TAP_TAPCELL_ROW_4_45
*468 TAP_TAPCELL_ROW_5_46
*469 TAP_TAPCELL_ROW_5_47
*470 TAP_TAPCELL_ROW_6_48
*471 TAP_TAPCELL_ROW_6_49
*472 TAP_TAPCELL_ROW_7_50
*473 TAP_TAPCELL_ROW_7_51
*474 TAP_TAPCELL_ROW_8_52
*475 TAP_TAPCELL_ROW_8_53
*476 TAP_TAPCELL_ROW_9_54
*477 TAP_TAPCELL_ROW_9_55
*478 _040_
*479 _041_
*480 _042_
*481 _043_
*482 _044_
*483 _045_
*484 _046_
*485 _047_
*486 _048_
*487 _049_
*488 _050_
*489 _051_
*490 _052_
*491 _053_
*492 _054_
*493 _055_
*494 _056_
*495 _057_
*496 _058_
*497 _059_
*498 _060_
*499 _061_
*500 _062_
*501 _063_
*502 _064_
*503 _065_
*504 _066_
*505 _067_
*506 _068_
*507 _069_
*508 _070_
*509 _071_
*510 _072_
*511 _073_
*512 _074_
*513 _075_
*514 _076_
*515 _077_
*516 _078_
*517 _079_
*518 _080_
*519 _081_
*520 _082_
*521 _083_
*522 _084_
*523 clkbuf_0_clk
*524 clkbuf_1_0__f_clk
*525 clkbuf_1_1__f_clk
*526 input1
*527 input10
*528 input11
*529 input12
*530 input13
*531 input14
*532 input15
*533 input16
*534 input17
*535 input18
*536 input19
*537 input2
*538 input20
*539 input21
*540 input22
*541 input23
*542 input24
*543 input25
*544 input26
*545 input27
*546 input28
*547 input29
*548 input3
*549 input30
*550 input31
*551 input32
*552 input33
*553 input34
*554 input35
*555 input36
*556 input37
*557 input38
*558 input39
*559 input4
*560 input40
*561 input5
*562 input6
*563 input7
*564 input8
*565 input9
*566 output41
*567 output42
*568 output43
*569 output44
*570 output45
*571 wb_buttons_leds_46
*572 wb_buttons_leds_47
*573 wb_buttons_leds_48
*574 wb_buttons_leds_49
*575 wb_buttons_leds_50
*576 wb_buttons_leds_51
*577 wb_buttons_leds_52
*578 wb_buttons_leds_53
*579 wb_buttons_leds_54
*580 wb_buttons_leds_55
*581 wb_buttons_leds_56
*582 wb_buttons_leds_57
*583 wb_buttons_leds_58
*584 wb_buttons_leds_59
*585 wb_buttons_leds_60
*586 wb_buttons_leds_61
*587 wb_buttons_leds_62
*588 wb_buttons_leds_63
*589 wb_buttons_leds_64
*590 wb_buttons_leds_65
*591 wb_buttons_leds_66
*592 wb_buttons_leds_67
*593 wb_buttons_leds_68
*594 wb_buttons_leds_69
*595 wb_buttons_leds_70
*596 wb_buttons_leds_71
*597 wb_buttons_leds_72
*598 wb_buttons_leds_73
*599 wb_buttons_leds_74
*600 wb_buttons_leds_75
*601 wb_buttons_leds_76

*PORTS
buttons[0] I
buttons[1] I
clk I
i_wb_addr[0] I
i_wb_addr[10] I
i_wb_addr[11] I
i_wb_addr[12] I
i_wb_addr[13] I
i_wb_addr[14] I
i_wb_addr[15] I
i_wb_addr[16] I
i_wb_addr[17] I
i_wb_addr[18] I
i_wb_addr[19] I
i_wb_addr[1] I
i_wb_addr[20] I
i_wb_addr[21] I
i_wb_addr[22] I
i_wb_addr[23] I
i_wb_addr[24] I
i_wb_addr[25] I
i_wb_addr[26] I
i_wb_addr[27] I
i_wb_addr[28] I
i_wb_addr[29] I
i_wb_addr[2] I
i_wb_addr[30] I
i_wb_addr[31] I
i_wb_addr[3] I
i_wb_addr[4] I
i_wb_addr[5] I
i_wb_addr[6] I
i_wb_addr[7] I
i_wb_addr[8] I
i_wb_addr[9] I
i_wb_cyc I
i_wb_data[0] I
i_wb_data[1] I
i_wb_stb I
i_wb_we I
leds[0] O
leds[1] O
o_wb_ack O
o_wb_data[0] O
o_wb_data[10] O
o_wb_data[11] O
o_wb_data[12] O
o_wb_data[13] O
o_wb_data[14] O
o_wb_data[15] O
o_wb_data[16] O
o_wb_data[17] O
o_wb_data[18] O
o_wb_data[19] O
o_wb_data[1] O
o_wb_data[20] O
o_wb_data[21] O
o_wb_data[22] O
o_wb_data[23] O
o_wb_data[24] O
o_wb_data[25] O
o_wb_data[26] O
o_wb_data[27] O
o_wb_data[28] O
o_wb_data[29] O
o_wb_data[2] O
o_wb_data[30] O
o_wb_data[31] O
o_wb_data[3] O
o_wb_data[4] O
o_wb_data[5] O
o_wb_data[6] O
o_wb_data[7] O
o_wb_data[8] O
o_wb_data[9] O
o_wb_stall O
reset I

*D_NET *3 0.00119212
*CONN
*P buttons[0] I
*I *526:I I *D gf180mcu_fd_sc_mcu7t5v0__clkbuf_1
*I *179:I I *D gf180mcu_fd_sc_mcu7t5v0__antenna
*CAP
1 buttons[0] 0.000370604
2 *526:I 3.57938e-05
3 *179:I 9.62512e-05
4 *3:9 0.000502649
5 *179:I *503:A1 7.50749e-05
6 *526:I *503:A1 2.40328e-06
7 *3:9 o_wb_ack 4.42236e-05
8 *3:9 o_wb_data[1] 4.17858e-05
9 *3:9 *503:A1 2.333e-05
*RES
1 buttons[0] *3:9 6.894 
2 *3:9 *179:I 5.336 
3 *3:9 *526:I 4.728 
*END

*D_NET *4 0.000960541
*CONN
*P buttons[1] I
*I *537:I I *D gf180mcu_fd_sc_mcu7t5v0__clkbuf_1
*I *190:I I *D gf180mcu_fd_sc_mcu7t5v0__antenna
*CAP
1 buttons[1] 0.000255635
2 *537:I 3.12866e-05
3 *190:I 0.000123695
4 *4:9 0.000410617
5 *190:I *200:I 0
6 *190:I *508:A1 0
7 *190:I *79:9 3.16765e-06
8 *190:I *155:10 2.77542e-05
9 *537:I *503:A1 5.14116e-06
10 *537:I *508:A1 1.02578e-05
11 *4:9 *42:5 2.52751e-05
12 *4:9 *79:9 6.77118e-05
*RES
1 buttons[1] *4:9 1.862 
2 *4:9 *190:I 9.836 
3 *4:9 *537:I 9.228 
*END

*D_NET *5 0.00582449
*CONN
*P clk I
*I *168:I I *D gf180mcu_fd_sc_mcu7t5v0__antenna
*I *523:I I *D gf180mcu_fd_sc_mcu7t5v0__clkbuf_16
*CAP
1 clk 0.00185383
2 *168:I 0
3 *523:I 0.000347773
4 *5:9 0.0022016
5 *523:I *504:A2 2.333e-05
6 *523:I *507:B 0
7 *523:I *511:A2 0
8 *523:I *122:19 0
9 *5:9 o_wb_data[8] 5.50106e-05
10 *5:9 *479:I 0.000902743
11 *5:9 *504:A1 5.8669e-05
12 *5:9 *504:A2 5.14116e-06
13 *5:9 *514:A1 0.000110811
14 *5:9 *519:D 4.1381e-05
15 *5:9 *519:CLK 8.06717e-06
16 *5:9 *520:CLK 0
17 *5:9 *566:I 2.98542e-05
18 *5:9 *39:7 5.50106e-05
19 *5:9 *122:19 0
20 *5:9 *158:21 0.00013127
*RES
1 clk *5:9 19.51 
2 *5:9 *523:I 6.552 
3 *5:9 *168:I 4.5 
*END

*D_NET *6 0.00554699
*CONN
*P i_wb_addr[0] I
*I *201:I I *D gf180mcu_fd_sc_mcu7t5v0__antenna
*I *548:I I *D gf180mcu_fd_sc_mcu7t5v0__buf_1
*CAP
1 i_wb_addr[0] 0.000849029
2 *201:I 0.000312723
3 *548:I 0
4 *6:13 0.00116175
5 *201:I o_wb_data[29] 0.000121187
6 *201:I *173:I 0.000621796
7 *201:I *181:I 6.23011e-05
8 *201:I *189:I 0.000108301
9 *201:I *203:I 0.000254002
10 *201:I *484:A4 5.97012e-05
11 *201:I *145:16 0.00026757
12 *6:13 o_wb_data[29] 0.000259381
13 *6:13 o_wb_data[31] 0.000271865
14 *6:13 *189:I 6.54873e-05
15 *6:13 *484:A4 0.000107266
16 *6:13 *7:15 0.00102462
*RES
1 i_wb_addr[0] *6:13 17.246 
2 *6:13 *548:I 4.5 
3 *6:13 *201:I 17.224 
*END

*D_NET *7 0.00420337
*CONN
*P i_wb_addr[10] I
*I *203:I I *D gf180mcu_fd_sc_mcu7t5v0__antenna
*I *559:I I *D gf180mcu_fd_sc_mcu7t5v0__clkbuf_1
*CAP
1 i_wb_addr[10] 0.000804443
2 *203:I 0.000190465
3 *559:I 0
4 *7:15 0.000994907
5 *203:I *173:I 2.8773e-05
6 *203:I *189:I 0.000113981
7 *7:15 o_wb_data[27] 1.63668e-05
8 *7:15 o_wb_data[29] 0.000262124
9 *7:15 *173:I 0.000310356
10 *7:15 *189:I 5.33384e-05
11 *7:15 *32:11 0.000140097
12 *7:15 *128:24 9.88736e-06
13 *201:I *203:I 0.000254002
14 *6:13 *7:15 0.00102462
*RES
1 i_wb_addr[10] *7:15 17.322 
2 *7:15 *559:I 4.5 
3 *7:15 *203:I 6.324 
*END

*D_NET *8 0.00286559
*CONN
*P i_wb_addr[11] I
*I *204:I I *D gf180mcu_fd_sc_mcu7t5v0__antenna
*I *561:I I *D gf180mcu_fd_sc_mcu7t5v0__clkbuf_1
*CAP
1 i_wb_addr[11] 0.000932905
2 *204:I 0.000182677
3 *561:I 0
4 *8:9 0.00111558
5 *204:I *208:I 2.59005e-05
6 *8:9 *169:I 0.000124318
7 *8:9 *208:I 9.61205e-06
8 *8:9 *487:A2 5.87561e-06
9 *8:9 *9:13 0.000468722
*RES
1 i_wb_addr[11] *8:9 7.03 
2 *8:9 *561:I 4.5 
3 *8:9 *204:I 5.716 
*END

*D_NET *9 0.00385017
*CONN
*P i_wb_addr[12] I
*I *205:I I *D gf180mcu_fd_sc_mcu7t5v0__antenna
*I *562:I I *D gf180mcu_fd_sc_mcu7t5v0__clkbuf_1
*CAP
1 i_wb_addr[12] 0.000588088
2 *205:I 0.000114132
3 *562:I 3.52686e-05
4 *9:13 0.000737489
5 *205:I o_wb_data[13] 7.88344e-05
6 *205:I *208:I 1.82146e-05
7 *205:I *486:A4 0.000181456
8 *562:I *169:I 3.40956e-05
9 *562:I *483:A3 0.000213194
10 *9:13 o_wb_data[13] 4.71425e-05
11 *9:13 *169:I 9.40803e-05
12 *9:13 *483:A3 0.000355995
13 *9:13 *13:9 0.000883462
14 *8:9 *9:13 0.000468722
*RES
1 i_wb_addr[12] *9:13 10.998 
2 *9:13 *562:I 9.532 
3 *9:13 *205:I 10.14 
*END

*D_NET *10 0.00338158
*CONN
*P i_wb_addr[13] I
*I *563:I I *D gf180mcu_fd_sc_mcu7t5v0__clkbuf_1
*I *206:I I *D gf180mcu_fd_sc_mcu7t5v0__antenna
*CAP
1 i_wb_addr[13] 0.000358721
2 *563:I 0.000214057
3 *206:I 0.000338555
4 *10:5 0.000911333
5 *206:I *195:I 0.000158329
6 *206:I *207:I 1.57713e-05
7 *206:I *485:A1 0.000132127
8 *206:I *485:A2 0.000829797
9 *206:I *37:9 9.2435e-05
10 *563:I o_wb_data[28] 6.14386e-05
11 *563:I *207:I 9.88736e-06
12 *563:I *482:A4 1.23313e-05
13 *563:I *21:13 0
14 *10:5 o_wb_data[28] 0.000106061
15 *10:5 *37:9 0.000140736
*RES
1 i_wb_addr[13] *10:5 3.23 
2 *10:5 *206:I 8.224 
3 *10:5 *563:I 5.868 
*END

*D_NET *11 0.00506617
*CONN
*P i_wb_addr[14] I
*I *564:I I *D gf180mcu_fd_sc_mcu7t5v0__clkbuf_1
*I *207:I I *D gf180mcu_fd_sc_mcu7t5v0__antenna
*CAP
1 i_wb_addr[14] 0.00072922
2 *564:I 2.88121e-05
3 *207:I 0.00046996
4 *11:9 0.00122799
5 *207:I *482:A4 9.70146e-05
6 *207:I *485:A2 3.75339e-05
7 *207:I *513:A4 3.26639e-05
8 *207:I *117:14 0.000102599
9 *564:I o_wb_data[28] 0.000116989
10 *564:I *482:A3 0.000118643
11 *11:9 o_wb_data[28] 1.11891e-05
12 *11:9 *482:A1 0.00120962
13 *11:9 *482:A3 0.000592584
14 *11:9 *482:A4 1.61066e-05
15 *11:9 *505:A2 3.50929e-06
16 *11:9 *505:A3 7.24161e-06
17 *11:9 *505:A4 5.76749e-06
18 *11:9 *33:9 0.000114586
19 *11:9 *36:7 0.00011848
20 *206:I *207:I 1.57713e-05
21 *563:I *207:I 9.88736e-06
*RES
1 i_wb_addr[14] *11:9 12.062 
2 *11:9 *207:I 12.116 
3 *11:9 *564:I 9.684 
*END

*D_NET *12 0.00371167
*CONN
*P i_wb_addr[15] I
*I *565:I I *D gf180mcu_fd_sc_mcu7t5v0__clkbuf_1
*I *208:I I *D gf180mcu_fd_sc_mcu7t5v0__antenna
*CAP
1 i_wb_addr[15] 0.000653939
2 *565:I 0
3 *208:I 0.000337285
4 *12:9 0.000991224
5 *208:I o_wb_data[13] 0.00041486
6 *208:I *482:A3 0.000178195
7 *208:I *483:A3 7.21523e-05
8 *208:I *486:A4 3.28976e-05
9 *208:I *487:A2 0.000246185
10 *208:I *13:9 8.16602e-05
11 *12:9 *482:A3 7.33233e-05
12 *12:9 *13:9 0.000468827
13 *12:9 *20:9 0.000107394
14 *204:I *208:I 2.59005e-05
15 *205:I *208:I 1.82146e-05
16 *8:9 *208:I 9.61205e-06
*RES
1 i_wb_addr[15] *12:9 5.358 
2 *12:9 *208:I 7.996 
3 *12:9 *565:I 4.5 
*END

*D_NET *13 0.00414603
*CONN
*P i_wb_addr[16] I
*I *169:I I *D gf180mcu_fd_sc_mcu7t5v0__antenna
*I *527:I I *D gf180mcu_fd_sc_mcu7t5v0__clkbuf_1
*CAP
1 i_wb_addr[16] 0.000484791
2 *169:I 0.000244992
3 *527:I 0
4 *13:9 0.000729783
5 *169:I *176:I 2.11364e-05
6 *169:I *483:A3 0.000290177
7 *169:I *486:A4 5.71374e-05
8 *169:I *487:A2 0.000553189
9 *13:9 *483:A3 7.83779e-05
10 *208:I *13:9 8.16602e-05
11 *562:I *169:I 3.40956e-05
12 *8:9 *169:I 0.000124318
13 *9:13 *169:I 9.40803e-05
14 *9:13 *13:9 0.000883462
15 *12:9 *13:9 0.000468827
*RES
1 i_wb_addr[16] *13:9 5.662 
2 *13:9 *527:I 4.5 
3 *13:9 *169:I 16.464 
*END

*D_NET *14 0.00207814
*CONN
*P i_wb_addr[17] I
*I *528:I I *D gf180mcu_fd_sc_mcu7t5v0__clkbuf_1
*I *170:I I *D gf180mcu_fd_sc_mcu7t5v0__antenna
*CAP
1 i_wb_addr[17] 0.00050203
2 *528:I 9.31577e-05
3 *170:I 0
4 *14:5 0.000595187
5 *528:I *174:I 4.65356e-05
6 *528:I *486:A2 0.000171048
7 *14:5 *174:I 0.000144102
8 *14:5 *486:A2 9.75298e-05
9 *14:5 *533:I 7.83779e-05
10 *14:5 *18:13 0.000240109
11 *14:5 *20:9 0.000110061
*RES
1 i_wb_addr[17] *14:5 4.75 
2 *14:5 *170:I 4.5 
3 *14:5 *528:I 5.412 
*END

*D_NET *15 0.00250289
*CONN
*P i_wb_addr[18] I
*I *171:I I *D gf180mcu_fd_sc_mcu7t5v0__antenna
*I *529:I I *D gf180mcu_fd_sc_mcu7t5v0__clkbuf_1
*CAP
1 i_wb_addr[18] 0.000592434
2 *171:I 8.86676e-05
3 *529:I 0
4 *15:9 0.000681102
5 *171:I *175:I 9.65141e-05
6 *171:I *487:A4 0.000146657
7 *15:9 *172:I 0
8 *15:9 *175:I 2.05156e-05
9 *15:9 *177:I 0
10 *15:9 *487:A3 0
11 *15:9 *487:A4 4.50449e-05
12 *15:9 *16:11 8.35439e-05
13 *15:9 *19:9 0.000748408
*RES
1 i_wb_addr[18] *15:9 5.662 
2 *15:9 *529:I 4.5 
3 *15:9 *171:I 5.488 
*END

*D_NET *16 0.00278685
*CONN
*P i_wb_addr[19] I
*I *172:I I *D gf180mcu_fd_sc_mcu7t5v0__antenna
*I *530:I I *D gf180mcu_fd_sc_mcu7t5v0__clkbuf_1
*CAP
1 i_wb_addr[19] 0.00068226
2 *172:I 0.000168986
3 *530:I 0
4 *16:11 0.000851246
5 *172:I *487:A3 8.80166e-05
6 *172:I *487:A4 0.000140179
7 *16:11 *482:A3 0.000321804
8 *16:11 *482:A4 0
9 *16:11 *486:A3 1.3758e-05
10 *16:11 *487:A3 0
11 *16:11 *21:13 0.00043706
12 *15:9 *172:I 0
13 *15:9 *16:11 8.35439e-05
*RES
1 i_wb_addr[19] *16:11 14.586 
2 *16:11 *530:I 4.5 
3 *16:11 *172:I 5.868 
*END

*D_NET *17 0.00458878
*CONN
*P i_wb_addr[1] I
*I *173:I I *D gf180mcu_fd_sc_mcu7t5v0__antenna
*I *531:I I *D gf180mcu_fd_sc_mcu7t5v0__buf_1
*CAP
1 i_wb_addr[1] 0.000367077
2 *173:I 0.000366884
3 *531:I 0
4 *17:9 0.000733961
5 *173:I o_wb_data[12] 0.000577098
6 *173:I *181:I 0.000431543
7 *173:I *187:I 1.83267e-05
8 *173:I *192:I 0
9 *173:I *484:A4 5.08971e-06
10 *173:I *128:24 3.81953e-05
11 *17:9 o_wb_data[12] 0.000802225
12 *17:9 o_wb_data[27] 5.29122e-05
13 *17:9 *28:9 0.000151066
14 *17:9 *34:7 5.26969e-05
15 *17:9 *128:24 3.07734e-05
16 *201:I *173:I 0.000621796
17 *203:I *173:I 2.8773e-05
18 *7:15 *173:I 0.000310356
*RES
1 i_wb_addr[1] *17:9 4.294 
2 *17:9 *531:I 4.5 
3 *17:9 *173:I 9.06 
*END

*D_NET *18 0.00342012
*CONN
*P i_wb_addr[20] I
*I *174:I I *D gf180mcu_fd_sc_mcu7t5v0__antenna
*I *532:I I *D gf180mcu_fd_sc_mcu7t5v0__clkbuf_1
*CAP
1 i_wb_addr[20] 0.000461241
2 *174:I 0.000233446
3 *532:I 0.00011116
4 *18:13 0.000805846
5 *174:I *486:A1 0.000487947
6 *174:I *486:A2 4.46661e-05
7 *174:I *533:I 2.6126e-05
8 *532:I *482:A3 0.000203643
9 *532:I *533:I 8.15645e-05
10 *18:13 *175:I 1.11169e-05
11 *18:13 *486:A1 8.55327e-05
12 *18:13 *533:I 7.83779e-05
13 *18:13 *19:9 0.000358711
14 *528:I *174:I 4.65356e-05
15 *14:5 *174:I 0.000144102
16 *14:5 *18:13 0.000240109
*RES
1 i_wb_addr[20] *18:13 4.75 
2 *18:13 *532:I 14.64 
3 *18:13 *174:I 7.008 
*END

*D_NET *19 0.00417615
*CONN
*P i_wb_addr[21] I
*I *175:I I *D gf180mcu_fd_sc_mcu7t5v0__antenna
*I *533:I I *D gf180mcu_fd_sc_mcu7t5v0__clkbuf_1
*CAP
1 i_wb_addr[21] 0.000387477
2 *175:I 0.000210918
3 *533:I 0.000177959
4 *19:9 0.000776354
5 *175:I *486:A1 0.000892324
6 *175:I *487:A1 0.000155343
7 *175:I *487:A4 1.72918e-05
8 *533:I *482:A3 5.8775e-05
9 *171:I *175:I 9.65141e-05
10 *174:I *533:I 2.6126e-05
11 *532:I *533:I 8.15645e-05
12 *14:5 *533:I 7.83779e-05
13 *15:9 *175:I 2.05156e-05
14 *15:9 *19:9 0.000748408
15 *18:13 *175:I 1.11169e-05
16 *18:13 *533:I 7.83779e-05
17 *18:13 *19:9 0.000358711
*RES
1 i_wb_addr[21] *19:9 4.75 
2 *19:9 *533:I 14.564 
3 *19:9 *175:I 7.464 
*END

*D_NET *20 0.00321825
*CONN
*P i_wb_addr[22] I
*I *176:I I *D gf180mcu_fd_sc_mcu7t5v0__antenna
*I *534:I I *D gf180mcu_fd_sc_mcu7t5v0__clkbuf_1
*CAP
1 i_wb_addr[22] 0.000499358
2 *176:I 0.0003599
3 *534:I 0.000228308
4 *20:9 0.00108757
5 *176:I *486:A2 0.000604703
6 *176:I *486:A4 7.59788e-06
7 *534:I *482:A3 0.000146876
8 *534:I *486:A4 3.73627e-05
9 *20:9 *486:A2 7.24161e-06
10 *20:9 *486:A4 7.45328e-07
11 *169:I *176:I 2.11364e-05
12 *12:9 *20:9 0.000107394
13 *14:5 *20:9 0.000110061
*RES
1 i_wb_addr[22] *20:9 3.99 
2 *20:9 *534:I 15.02 
3 *20:9 *176:I 7.388 
*END

*D_NET *21 0.00295181
*CONN
*P i_wb_addr[23] I
*I *177:I I *D gf180mcu_fd_sc_mcu7t5v0__antenna
*I *535:I I *D gf180mcu_fd_sc_mcu7t5v0__clkbuf_1
*CAP
1 i_wb_addr[23] 0.000661792
2 *177:I 0.000189917
3 *535:I 0
4 *21:13 0.000851709
5 *177:I *483:A3 2.9378e-06
6 *177:I *486:A3 1.87733e-05
7 *177:I *487:A3 0.000393507
8 *21:13 o_wb_data[28] 0.000246717
9 *21:13 *482:A3 0.000107638
10 *21:13 *482:A4 7.24161e-06
11 *21:13 *486:A3 2.96621e-05
12 *21:13 *487:A3 4.85698e-06
13 *563:I *21:13 0
14 *15:9 *177:I 0
15 *16:11 *21:13 0.00043706
*RES
1 i_wb_addr[23] *21:13 14.662 
2 *21:13 *535:I 4.5 
3 *21:13 *177:I 6.172 
*END

*D_NET *22 0.0010605
*CONN
*P i_wb_addr[24] I
*I *178:I I *D gf180mcu_fd_sc_mcu7t5v0__antenna
*I *536:I I *D gf180mcu_fd_sc_mcu7t5v0__clkbuf_1
*CAP
1 i_wb_addr[24] 0.000150232
2 *178:I 0.000194916
3 *536:I 4.72841e-05
4 *22:5 0.000392432
5 *178:I *180:I 2.94319e-05
6 *178:I *182:I 3.18726e-05
7 *178:I *490:A3 2.22758e-05
8 *178:I *491:A1 3.73627e-05
9 *178:I *25:5 1.34641e-06
10 *536:I *490:A2 4.27914e-05
11 *22:5 *180:I 2.97354e-06
12 *22:5 *23:5 5.50106e-05
13 *22:5 *25:5 5.25699e-05
*RES
1 i_wb_addr[24] *22:5 1.406 
2 *22:5 *536:I 9.38 
3 *22:5 *178:I 10.368 
*END

*D_NET *23 0.00139728
*CONN
*P i_wb_addr[25] I
*I *180:I I *D gf180mcu_fd_sc_mcu7t5v0__antenna
*I *538:I I *D gf180mcu_fd_sc_mcu7t5v0__clkbuf_1
*CAP
1 i_wb_addr[25] 0.000146443
2 *180:I 0.000217093
3 *538:I 0
4 *23:5 0.000363536
5 *180:I *184:I 5.4811e-06
6 *180:I *490:A1 0.000260709
7 *180:I *490:A2 8.59272e-06
8 *180:I *491:A1 9.88736e-06
9 *180:I *542:I 0.000230244
10 *180:I *27:9 1.53073e-05
11 *23:5 *27:9 5.25699e-05
12 *178:I *180:I 2.94319e-05
13 *22:5 *180:I 2.97354e-06
14 *22:5 *23:5 5.50106e-05
*RES
1 i_wb_addr[25] *23:5 1.406 
2 *23:5 *538:I 9 
3 *23:5 *180:I 10.824 
*END

*D_NET *24 0.0020991
*CONN
*P i_wb_addr[26] I
*I *181:I I *D gf180mcu_fd_sc_mcu7t5v0__antenna
*I *539:I I *D gf180mcu_fd_sc_mcu7t5v0__clkbuf_1
*CAP
1 i_wb_addr[26] 0.000243112
2 *181:I 0.000321694
3 *539:I 2.39161e-05
4 *24:7 0.000588722
5 *181:I *183:I 8.34918e-05
6 *181:I *189:I 1.94398e-05
7 *181:I *484:A2 0
8 *181:I *484:A4 0.000115286
9 *539:I *484:A2 8.55327e-05
10 *24:7 o_wb_data[31] 4.79721e-05
11 *24:7 *183:I 2.27595e-06
12 *24:7 *189:I 2.41598e-05
13 *24:7 *26:5 4.96541e-05
14 *173:I *181:I 0.000431543
15 *201:I *181:I 6.23011e-05
*RES
1 i_wb_addr[26] *24:7 1.938 
2 *24:7 *539:I 9.228 
3 *24:7 *181:I 11.736 
*END

*D_NET *25 0.00112441
*CONN
*P i_wb_addr[27] I
*I *182:I I *D gf180mcu_fd_sc_mcu7t5v0__antenna
*I *540:I I *D gf180mcu_fd_sc_mcu7t5v0__clkbuf_1
*CAP
1 i_wb_addr[27] 0.000171285
2 *182:I 0.000212638
3 *540:I 6.32504e-05
4 *25:5 0.000447173
5 *182:I *198:I 1.09179e-05
6 *182:I *478:I 5.14406e-05
7 *182:I *490:A3 1.93526e-05
8 *182:I *40:5 1.34641e-06
9 *540:I *490:A3 1.29518e-05
10 *25:5 *40:5 4.8261e-05
11 *178:I *182:I 3.18726e-05
12 *178:I *25:5 1.34641e-06
13 *22:5 *25:5 5.25699e-05
*RES
1 i_wb_addr[27] *25:5 1.406 
2 *25:5 *540:I 9.38 
3 *25:5 *182:I 10.368 
*END

*D_NET *26 0.00147599
*CONN
*P i_wb_addr[28] I
*I *183:I I *D gf180mcu_fd_sc_mcu7t5v0__antenna
*I *541:I I *D gf180mcu_fd_sc_mcu7t5v0__clkbuf_1
*CAP
1 i_wb_addr[28] 0.000170227
2 *183:I 0.000192282
3 *541:I 8.44776e-05
4 *26:5 0.000446986
5 *183:I *187:I 5.90246e-06
6 *183:I *192:I 8.49277e-05
7 *183:I *484:A2 5.65596e-05
8 *183:I *484:A4 0.000134636
9 *183:I *30:5 1.34641e-06
10 *541:I *484:A2 0.000114958
11 *26:5 *30:5 4.8261e-05
12 *181:I *183:I 8.34918e-05
13 *24:7 *183:I 2.27595e-06
14 *24:7 *26:5 4.96541e-05
*RES
1 i_wb_addr[28] *26:5 1.406 
2 *26:5 *541:I 9.684 
3 *26:5 *183:I 10.672 
*END

*D_NET *27 0.0028174
*CONN
*P i_wb_addr[29] I
*I *184:I I *D gf180mcu_fd_sc_mcu7t5v0__antenna
*I *542:I I *D gf180mcu_fd_sc_mcu7t5v0__clkbuf_1
*CAP
1 i_wb_addr[29] 0.000195262
2 *184:I 0.000154166
3 *542:I 7.97116e-05
4 *27:9 0.000429139
5 *184:I *489:A2 0
6 *184:I *490:A2 0.000462714
7 *184:I *490:A3 0.000444665
8 *184:I *490:A4 1.91917e-06
9 *542:I *490:A3 0.000104942
10 *27:9 *186:I 0.000168238
11 *27:9 *490:A2 0.000269857
12 *27:9 *490:A3 0.000151957
13 *27:9 *29:9 5.12235e-05
14 *180:I *184:I 5.4811e-06
15 *180:I *542:I 0.000230244
16 *180:I *27:9 1.53073e-05
17 *23:5 *27:9 5.25699e-05
*RES
1 i_wb_addr[29] *27:9 2.622 
2 *27:9 *542:I 9.836 
3 *27:9 *184:I 10.824 
*END

*D_NET *28 0.00300729
*CONN
*P i_wb_addr[2] I
*I *185:I I *D gf180mcu_fd_sc_mcu7t5v0__antenna
*I *543:I I *D gf180mcu_fd_sc_mcu7t5v0__buf_1
*CAP
1 i_wb_addr[2] 0.000389377
2 *185:I 0.00014096
3 *543:I 0
4 *28:9 0.000530337
5 *185:I o_wb_data[10] 3.00299e-05
6 *185:I o_wb_data[27] 0.000439053
7 *185:I *189:I 7.97119e-05
8 *185:I *140:14 0.000775163
9 *28:9 o_wb_data[10] 0.000162778
10 *28:9 o_wb_data[27] 0.000308818
11 *17:9 *28:9 0.000151066
*RES
1 i_wb_addr[2] *28:9 3.99 
2 *28:9 *543:I 4.5 
3 *28:9 *185:I 7.084 
*END

*D_NET *29 0.00211085
*CONN
*P i_wb_addr[30] I
*I *544:I I *D gf180mcu_fd_sc_mcu7t5v0__clkbuf_1
*I *186:I I *D gf180mcu_fd_sc_mcu7t5v0__antenna
*CAP
1 i_wb_addr[30] 0.000292897
2 *544:I 5.04552e-05
3 *186:I 3.5738e-05
4 *29:9 0.00037909
5 *186:I *489:A1 0.000533098
6 *186:I *490:A3 0.000476427
7 *544:I *490:A3 2.9378e-06
8 *29:9 *187:I 1.34641e-06
9 *29:9 *489:A1 6.68265e-05
10 *29:9 *30:5 5.25699e-05
11 *27:9 *186:I 0.000168238
12 *27:9 *29:9 5.12235e-05
*RES
1 i_wb_addr[30] *29:9 6.742 
2 *29:9 *186:I 15.248 
3 *29:9 *544:I 4.728 
*END

*D_NET *30 0.00153189
*CONN
*P i_wb_addr[31] I
*I *187:I I *D gf180mcu_fd_sc_mcu7t5v0__antenna
*I *545:I I *D gf180mcu_fd_sc_mcu7t5v0__clkbuf_1
*CAP
1 i_wb_addr[31] 0.000171285
2 *187:I 0.000193324
3 *545:I 0.00011073
4 *30:5 0.000475339
5 *187:I *192:I 0.000107778
6 *187:I *484:A2 2.47727e-05
7 *187:I *489:A1 0
8 *187:I *490:A4 3.50929e-06
9 *187:I *491:A2 0.00026757
10 *545:I *489:A1 1.02578e-05
11 *545:I *490:A4 3.95764e-05
12 *173:I *187:I 1.83267e-05
13 *183:I *187:I 5.90246e-06
14 *183:I *30:5 1.34641e-06
15 *26:5 *30:5 4.8261e-05
16 *29:9 *187:I 1.34641e-06
17 *29:9 *30:5 5.25699e-05
*RES
1 i_wb_addr[31] *30:5 1.406 
2 *30:5 *545:I 9.684 
3 *30:5 *187:I 10.672 
*END

*D_NET *31 0.00447687
*CONN
*P i_wb_addr[3] I
*I *188:I I *D gf180mcu_fd_sc_mcu7t5v0__antenna
*I *546:I I *D gf180mcu_fd_sc_mcu7t5v0__buf_1
*CAP
1 i_wb_addr[3] 0.00076827
2 *188:I 0.000349719
3 *546:I 0
4 *31:11 0.00111799
5 *188:I o_wb_data[2] 6.82817e-05
6 *188:I *484:A4 1.52768e-05
7 *188:I *143:16 0.00117343
8 *31:11 o_wb_data[19] 0.000117156
9 *31:11 *482:A1 0.000222378
10 *31:11 *505:A1 1.3758e-05
11 *31:11 *35:7 0.000116244
12 *31:11 *128:24 0.000514366
*RES
1 i_wb_addr[3] *31:11 15.65 
2 *31:11 *546:I 4.5 
3 *31:11 *188:I 7.996 
*END

*D_NET *32 0.0041995
*CONN
*P i_wb_addr[4] I
*I *547:I I *D gf180mcu_fd_sc_mcu7t5v0__clkbuf_1
*I *189:I I *D gf180mcu_fd_sc_mcu7t5v0__antenna
*CAP
1 i_wb_addr[4] 0.000704869
2 *547:I 0
3 *189:I 0.000702034
4 *32:11 0.0014069
5 *189:I o_wb_data[27] 7.83779e-05
6 *189:I o_wb_data[31] 1.11891e-05